92786
  -OEChem-01082001563D

 57 60  0     1  0  0  0  0  0999 V2000
   -5.1964   -0.3257    1.6786 O   0  0  0  0  0  0  0  0  0  0  0  0
    5.4994   -0.2044   -0.7145 O   0  0  0  0  0  0  0  0  0  0  0  0
   -0.7078   -0.3685    0.1656 C   0  0  1  0  0  0  0  0  0  0  0  0
    0.0230    0.9541   -0.2359 C   0  0  2  0  0  0  0  0  0  0  0  0
    1.4208    0.9495    0.3932 C   0  0  1  0  0  0  0  0  0  0  0  0
    2.2848   -0.2453   -0.0665 C   0  0  2  0  0  0  0  0  0  0  0  0
   -2.1771   -0.4219   -0.3971 C   0  0  2  0  0  0  0  0  0  0  0  0
   -2.9199    0.8519    0.1198 C   0  0  1  0  0  0  0  0  0  0  0  0
    0.1477   -1.6232   -0.1515 C   0  0  0  0  0  0  0  0  0  0  0  0
    1.5863   -1.5335    0.3897 C   0  0  0  0  0  0  0  0  0  0  0  0
   -0.7824    2.1891    0.1928 C   0  0  0  0  0  0  0  0  0  0  0  0
    3.5915    0.0885    0.6867 C   0  0  2  0  0  0  0  0  0  0  0  0
    2.3342    2.1513    0.1774 C   0  0  0  0  0  0  0  0  0  0  0  0
   -2.2239    2.1487   -0.3097 C   0  0  0  0  0  0  0  0  0  0  0  0
   -2.9315   -1.6642    0.1561 C   0  0  0  0  0  0  0  0  0  0  0  0
    3.7322    1.6188    0.5393 C   0  0  0  0  0  0  0  0  0  0  0  0
   -4.4127    0.8680   -0.2512 C   0  0  0  0  0  0  0  0  0  0  0  0
    2.5267   -0.2930   -1.5984 C   0  0  0  0  0  0  0  0  0  0  0  0
   -2.1697   -0.5038   -1.9454 C   0  0  0  0  0  0  0  0  0  0  0  0
   -4.4300   -1.6698   -0.1728 C   0  0  0  0  0  0  0  0  0  0  0  0
   -5.1331   -0.3829    0.2536 C   0  0  1  0  0  0  0  0  0  0  0  0
    4.8046   -0.6433    0.2008 C   0  0  0  0  0  0  0  0  0  0  0  0
    5.1333   -1.9403    0.8893 C   0  0  0  0  0  0  0  0  0  0  0  0
   -0.7984   -0.3507    1.2636 H   0  0  0  0  0  0  0  0  0  0  0  0
    0.1275    1.0019   -1.3244 H   0  0  0  0  0  0  0  0  0  0  0  0
    1.2739    0.8716    1.4839 H   0  0  0  0  0  0  0  0  0  0  0  0
   -2.8757    0.8317    1.2199 H   0  0  0  0  0  0  0  0  0  0  0  0
    0.1824   -1.8000   -1.2307 H   0  0  0  0  0  0  0  0  0  0  0  0
   -0.3163   -2.5116    0.2911 H   0  0  0  0  0  0  0  0  0  0  0  0
    1.5520   -1.5770    1.4859 H   0  0  0  0  0  0  0  0  0  0  0  0
    2.1449   -2.4165    0.0604 H   0  0  0  0  0  0  0  0  0  0  0  0
   -0.3032    3.1005   -0.1835 H   0  0  0  0  0  0  0  0  0  0  0  0
   -0.7880    2.2659    1.2877 H   0  0  0  0  0  0  0  0  0  0  0  0
    3.4770   -0.1274    1.7581 H   0  0  0  0  0  0  0  0  0  0  0  0
    2.0562    2.9996    0.8111 H   0  0  0  0  0  0  0  0  0  0  0  0
    2.3100    2.4928   -0.8633 H   0  0  0  0  0  0  0  0  0  0  0  0
   -2.7617    3.0126    0.0999 H   0  0  0  0  0  0  0  0  0  0  0  0
   -2.2447    2.2604   -1.3997 H   0  0  0  0  0  0  0  0  0  0  0  0
   -2.8113   -1.7091    1.2466 H   0  0  0  0  0  0  0  0  0  0  0  0
   -2.4953   -2.5882   -0.2415 H   0  0  0  0  0  0  0  0  0  0  0  0
    4.4553    1.9301   -0.2217 H   0  0  0  0  0  0  0  0  0  0  0  0
    4.0699    2.0517    1.4884 H   0  0  0  0  0  0  0  0  0  0  0  0
   -4.8783    1.7540    0.1994 H   0  0  0  0  0  0  0  0  0  0  0  0
   -4.5395    0.9608   -1.3353 H   0  0  0  0  0  0  0  0  0  0  0  0
    3.0747    0.5807   -1.9650 H   0  0  0  0  0  0  0  0  0  0  0  0
    3.1095   -1.1806   -1.8707 H   0  0  0  0  0  0  0  0  0  0  0  0
    1.5974   -0.3452   -2.1716 H   0  0  0  0  0  0  0  0  0  0  0  0
   -1.5952    0.3018   -2.4089 H   0  0  0  0  0  0  0  0  0  0  0  0
   -1.7395   -1.4500   -2.2900 H   0  0  0  0  0  0  0  0  0  0  0  0
   -3.1755   -0.4501   -2.3708 H   0  0  0  0  0  0  0  0  0  0  0  0
   -4.5724   -1.8256   -1.2480 H   0  0  0  0  0  0  0  0  0  0  0  0
   -4.8884   -2.5283    0.3331 H   0  0  0  0  0  0  0  0  0  0  0  0
   -6.1649   -0.3818   -0.1147 H   0  0  0  0  0  0  0  0  0  0  0  0
    5.2462   -1.7712    1.9631 H   0  0  0  0  0  0  0  0  0  0  0  0
    4.3498   -2.6761    0.7027 H   0  0  0  0  0  0  0  0  0  0  0  0
    6.0783   -2.3299    0.4995 H   0  0  0  0  0  0  0  0  0  0  0  0
   -5.6817   -1.1116    1.9825 H   0  0  0  0  0  0  0  0  0  0  0  0
  1 21  1  0  0  0  0
  1 57  1  0  0  0  0
  2 22  2  0  0  0  0
  3  4  1  0  0  0  0
  3  7  1  0  0  0  0
  3  9  1  0  0  0  0
  3 24  1  0  0  0  0
  4  5  1  0  0  0  0
  4 11  1  0  0  0  0
  4 25  1  0  0  0  0
  5  6  1  0  0  0  0
  5 13  1  0  0  0  0
  5 26  1  0  0  0  0
  6 10  1  0  0  0  0
  6 12  1  0  0  0  0
  6 18  1  0  0  0  0
  7  8  1  0  0  0  0
  7 15  1  0  0  0  0
  7 19  1  0  0  0  0
  8 14  1  0  0  0  0
  8 17  1  0  0  0  0
  8 27  1  0  0  0  0
  9 10  1  0  0  0  0
  9 28  1  0  0  0  0
  9 29  1  0  0  0  0
 10 30  1  0  0  0  0
 10 31  1  0  0  0  0
 11 14  1  0  0  0  0
 11 32  1  0  0  0  0
 11 33  1  0  0  0  0
 12 16  1  0  0  0  0
 12 22  1  0  0  0  0
 12 34  1  0  0  0  0
 13 16  1  0  0  0  0
 13 35  1  0  0  0  0
 13 36  1  0  0  0  0
 14 37  1  0  0  0  0
 14 38  1  0  0  0  0
 15 20  1  0  0  0  0
 15 39  1  0  0  0  0
 15 40  1  0  0  0  0
 16 41  1  0  0  0  0
 16 42  1  0  0  0  0
 17 21  1  0  0  0  0
 17 43  1  0  0  0  0
 17 44  1  0  0  0  0
 18 45  1  0  0  0  0
 18 46  1  0  0  0  0
 18 47  1  0  0  0  0
 19 48  1  0  0  0  0
 19 49  1  0  0  0  0
 19 50  1  0  0  0  0
 20 21  1  0  0  0  0
 20 51  1  0  0  0  0
 20 52  1  0  0  0  0
 21 53  1  0  0  0  0
 22 23  1  0  0  0  0
 23 54  1  0  0  0  0
 23 55  1  0  0  0  0
 23 56  1  0  0  0  0
M  END
> <PUBCHEM_COMPOUND_CID>
92786

> <PUBCHEM_CONFORMER_RMSD>
0.6

> <PUBCHEM_CONFORMER_DIVERSEORDER>
1
2

> <PUBCHEM_MMFF94_PARTIAL_CHARGES>
7
1 -0.68
12 0.06
2 -0.57
21 0.28
22 0.45
23 0.06
57 0.4

> <PUBCHEM_EFFECTIVE_ROTOR_COUNT>
3.2

> <PUBCHEM_PHARMACOPHORE_FEATURES>
7
1 1 acceptor
1 1 donor
1 2 acceptor
5 5 6 12 13 16 rings
6 3 4 5 6 9 10 rings
6 3 4 7 8 11 14 rings
6 7 8 15 17 20 21 rings

> <PUBCHEM_HEAVY_ATOM_COUNT>
23

> <PUBCHEM_ATOM_DEF_STEREO_COUNT>
8

> <PUBCHEM_ATOM_UDEF_STEREO_COUNT>
0

> <PUBCHEM_BOND_DEF_STEREO_COUNT>
0

> <PUBCHEM_BOND_UDEF_STEREO_COUNT>
0

> <PUBCHEM_ISOTOPIC_ATOM_COUNT>
0

> <PUBCHEM_COMPONENT_COUNT>
1

> <PUBCHEM_CACTVS_TAUTO_COUNT>
3

> <PUBCHEM_CONFORMER_ID>
00016A7200000001

> <PUBCHEM_MMFF94_ENERGY>
77.3978

> <PUBCHEM_FEATURE_SELFOVERLAP>
35.611

> <PUBCHEM_SHAPE_FINGERPRINT>
11405975 8 18271805752191646075
12011746 2 18410004438982818781
12107183 9 17541651717315536394
12166972 35 17749112196808181588
12236239 1 17676490523382675924
12403259 226 18409720764419109944
12403259 415 18261384564046659796
12403814 3 18060413634314876877
12422481 6 17917997143889770942
12553582 1 18338784667666302304
12596599 1 17916042285536139851
12633257 1 17131832100877067041
12788726 201 17988656180865686392
13140716 1 18340769367938372723
13224815 77 18341610442709533141
13288520 33 18411136909672652886
13675066 3 18131062762067575216
13862211 1 18411131437599857899
14115302 16 17822299015105124494
14178342 30 18056200176692286912
14341114 176 18409450288884695320
15196674 1 18411415145959426081
15209289 33 18334574633380450258
15536298 74 18343299309733952440
15788980 27 18260546727501082819
16945 1 18340207371668151053
17349148 13 17894631439673370498
17804303 29 18411981368714869652
1813 80 17530961418813925293
18186145 218 18187352260025660308
19141452 34 17775003522578836535
19591789 44 18411695529977565755
200 152 17894914022725237243
20028762 73 18201712989828625166
20261772 1 18201996655174469327
21267235 1 18410862057224399715
21682296 61 18057891242808760854
221490 88 18337110163392640944
22182313 1 17773602615699532572
23402539 116 18342167877835347343
23522609 53 18194433089102694112
23557571 272 18130511846697114660
23559900 14 18410566310256344664
2871803 45 18335129912675073097
296302 2 11743839170486687461
3286 77 18334572451906127660
335352 9 18410853235899832661
34934 24 18411693280152934085
350125 39 18410856547003275288
4214541 1 18410853231283092129
465052 167 18411703179942125822
5104073 3 18343300404918731403
542803 24 17458063759295322364
59755656 215 18335984168712142422
7495541 125 18333450954414635752
9709674 26 18264768929387288099

> <PUBCHEM_SHAPE_MULTIPOLES>
461.59
11.17
2.2
1.11
1.12
0.54
-0.3
-3.27
1.99
0.26
0.24
-0.25
-0.19
-0.06

> <PUBCHEM_SHAPE_SELFOVERLAP>
976.717

> <PUBCHEM_SHAPE_VOLUME>
256.8

> <PUBCHEM_COORDINATE_TYPE>
2
5
10

$$$$
