11962412
  -OEChem-01082000333D

 28 29  0     1  0  0  0  0  0999 V2000
   -1.3475    2.1935    1.8050 Cl  0  0  0  0  0  0  0  0  0  0  0  0
    0.3896   -1.3314   -0.0889 O   0  0  0  0  0  0  0  0  0  0  0  0
   -1.1383   -1.8872    1.5410 O   0  0  0  0  0  0  0  0  0  0  0  0
    2.4618    0.6782   -0.4528 N   0  0  0  0  0  0  0  0  0  0  0  0
    3.1749   -0.2749   -1.0483 N   0  0  0  0  0  0  0  0  0  0  0  0
    3.0837    1.4374    0.4462 N   0  0  0  0  0  0  0  0  0  0  0  0
    4.3227    0.9611    0.4625 N   0  0  0  0  0  0  0  0  0  0  0  0
    0.0548   -3.4953    0.4109 N   0  0  0  0  0  0  0  0  0  0  0  0
    0.0994    0.0577    0.1164 C   0  0  1  0  0  0  0  0  0  0  0  0
    1.0538    0.8820   -0.7714 C   0  0  0  0  0  0  0  0  0  0  0  0
   -1.3489    0.3042   -0.1593 C   0  0  0  0  0  0  0  0  0  0  0  0
   -2.0796    1.2520    0.5573 C   0  0  0  0  0  0  0  0  0  0  0  0
   -1.9682   -0.4409   -1.1628 C   0  0  0  0  0  0  0  0  0  0  0  0
   -3.4295    1.4545    0.2704 C   0  0  0  0  0  0  0  0  0  0  0  0
   -3.3180   -0.2384   -1.4495 C   0  0  0  0  0  0  0  0  0  0  0  0
   -4.0488    0.7093   -0.7329 C   0  0  0  0  0  0  0  0  0  0  0  0
   -0.3063   -2.2019    0.6966 C   0  0  0  0  0  0  0  0  0  0  0  0
    4.3444   -0.0600   -0.4403 C   0  0  0  0  0  0  0  0  0  0  0  0
    0.3508    0.2575    1.1651 H   0  0  0  0  0  0  0  0  0  0  0  0
    0.9347    0.6111   -1.8281 H   0  0  0  0  0  0  0  0  0  0  0  0
    0.8541    1.9560   -0.6789 H   0  0  0  0  0  0  0  0  0  0  0  0
   -1.4225   -1.1680   -1.7582 H   0  0  0  0  0  0  0  0  0  0  0  0
   -4.0129    2.1894    0.8192 H   0  0  0  0  0  0  0  0  0  0  0  0
   -3.7990   -0.8141   -2.2349 H   0  0  0  0  0  0  0  0  0  0  0  0
   -5.0995    0.8679   -0.9574 H   0  0  0  0  0  0  0  0  0  0  0  0
    5.2181   -0.6543   -0.6586 H   0  0  0  0  0  0  0  0  0  0  0  0
    0.7491   -3.7054   -0.2983 H   0  0  0  0  0  0  0  0  0  0  0  0
   -0.3621   -4.2806    0.8993 H   0  0  0  0  0  0  0  0  0  0  0  0
  1 12  1  0  0  0  0
  2  9  1  0  0  0  0
  2 17  1  0  0  0  0
  3 17  2  0  0  0  0
  4  5  1  0  0  0  0
  4  6  1  0  0  0  0
  4 10  1  0  0  0  0
  5 18  2  0  0  0  0
  6  7  2  0  0  0  0
  7 18  1  0  0  0  0
  8 17  1  0  0  0  0
  8 27  1  0  0  0  0
  8 28  1  0  0  0  0
  9 10  1  0  0  0  0
  9 11  1  0  0  0  0
  9 19  1  0  0  0  0
 10 20  1  0  0  0  0
 10 21  1  0  0  0  0
 11 12  1  0  0  0  0
 11 13  2  0  0  0  0
 12 14  2  0  0  0  0
 13 15  1  0  0  0  0
 13 22  1  0  0  0  0
 14 16  1  0  0  0  0
 14 23  1  0  0  0  0
 15 16  2  0  0  0  0
 15 24  1  0  0  0  0
 16 25  1  0  0  0  0
 18 26  1  0  0  0  0
M  END
> <PUBCHEM_COMPOUND_CID>
11962412

> <PUBCHEM_CONFORMER_RMSD>
0.6

> <PUBCHEM_CONFORMER_DIVERSEORDER>
1
61
47
19
68
83
3
43
81
79
65
41
74
55
37
85
78
27
42
71
52
29
59
73
63
48
2
62
28
77
72
60
44
16
76
38
35
80
11
22
18
8
58
82
49
84
14
6
4
69
12
21
30
13
46
75
15
54
51
26
32
17
25
56
10
67
9
45
53
66
36
39
31
33
57
50
5
70
23
34
20
40
64
7
24

> <PUBCHEM_MMFF94_PARTIAL_CHARGES>
25
1 -0.18
10 0.26
11 -0.14
12 0.18
13 -0.15
14 -0.15
15 -0.15
16 -0.15
17 0.78
18 0.37
2 -0.43
22 0.15
23 0.15
24 0.15
25 0.15
26 0.15
27 0.37
28 0.37
3 -0.57
4 0.58
5 -0.71
6 -0.42
7 -0.23
8 -0.8
9 0.42

> <PUBCHEM_EFFECTIVE_ROTOR_COUNT>
5

> <PUBCHEM_PHARMACOPHORE_FEATURES>
5
1 3 acceptor
1 8 donor
3 5 7 18 cation
5 4 5 6 7 18 rings
6 11 12 13 14 15 16 rings

> <PUBCHEM_HEAVY_ATOM_COUNT>
18

> <PUBCHEM_ATOM_DEF_STEREO_COUNT>
1

> <PUBCHEM_ATOM_UDEF_STEREO_COUNT>
0

> <PUBCHEM_BOND_DEF_STEREO_COUNT>
0

> <PUBCHEM_BOND_UDEF_STEREO_COUNT>
0

> <PUBCHEM_ISOTOPIC_ATOM_COUNT>
0

> <PUBCHEM_COMPONENT_COUNT>
1

> <PUBCHEM_CACTVS_TAUTO_COUNT>
2

> <PUBCHEM_CONFORMER_ID>
00B6882C00000001

> <PUBCHEM_MMFF94_ENERGY>
37.6549

> <PUBCHEM_FEATURE_SELFOVERLAP>
25.371

> <PUBCHEM_SHAPE_FINGERPRINT>
10366900 7 17917149507120835880
11315181 36 18343584071304968060
12119455 92 17240757372309166845
121448 382 18339916104171306275
12500047 106 18335420222884736934
12592029 89 17458620090809648907
13583140 156 16515686696967731936
14787075 74 18341898554006678801
15048467 5 15195294135775572737
15309172 13 17966970512819504565
15852999 172 17967538943309620027
16752209 62 18043245945231412562
18186145 218 18410006628667352388
187816 3 18341889718805491101
19765921 60 18337383855999251065
200 152 14333411142547926772
20361792 2 10519695670624898185
20510252 161 18267028442899018035
21339142 149 18202004360424802619
21524375 3 18411983524735451574
23236772 104 18272653398911765129
23402539 116 18130780161894173532
23419403 2 16698073814732616883
23559900 14 18343298206755571392
266924 1 18127965305227417025
3250762 1 17547280563956944537
34934 24 18058729096744748321
4340502 62 18188224100449578249
474 4 18336271149767945477
633830 44 18341896259803403837
7364860 26 18050566248883228559
74978 22 18115876359384408820
81228 2 17609498576645154939
9709674 26 18202006564202052734
9981440 41 17195419224981356480

> <PUBCHEM_SHAPE_MULTIPOLES>
335.66
7.05
2.49
1.34
5.31
1.89
-0.21
-3.07
2.08
-0.27
-1.46
-0.72
0.01
-0.36

> <PUBCHEM_SHAPE_SELFOVERLAP>
703.311

> <PUBCHEM_SHAPE_VOLUME>
189.8

> <PUBCHEM_COORDINATE_TYPE>
2
5
10

$$$$
