67171867
  -OEChem-01082001043D

 47 49  0     1  0  0  0  0  0999 V2000
   -2.8314   -1.9655   -0.9100 Cl  0  0  0  0  0  0  0  0  0  0  0  0
    2.9691    0.1463    1.6624 O   0  0  0  0  0  0  0  0  0  0  0  0
    1.6625   -5.4225    1.2710 O   0  0  0  0  0  0  0  0  0  0  0  0
    1.2725    3.2158   -0.1192 N   0  0  0  0  0  0  0  0  0  0  0  0
    3.0580    0.8577   -0.5428 N   0  0  0  0  0  0  0  0  0  0  0  0
    0.3722    2.3033   -0.5229 N   0  0  0  0  0  0  0  0  0  0  0  0
    1.6360   -2.8790   -1.2987 N   0  0  0  0  0  0  0  0  0  0  0  0
    2.0998   -1.6178   -1.2819 N   0  0  0  0  0  0  0  0  0  0  0  0
   -6.4235   -1.0926   -0.2837 N   0  0  0  0  0  0  0  0  0  0  0  0
    3.5862    2.1757   -0.2727 C   0  0  2  0  0  0  0  0  0  0  0  0
    2.6317    3.2696   -0.7755 C   0  0  0  0  0  0  0  0  0  0  0  0
    4.9621    2.3236   -0.9158 C   0  0  0  0  0  0  0  0  0  0  0  0
    0.8268    4.0223    0.8865 C   0  0  0  0  0  0  0  0  0  0  0  0
    2.7915   -0.0563    0.4641 C   0  0  0  0  0  0  0  0  0  0  0  0
   -0.6805    2.5482    0.2619 C   0  0  0  0  0  0  0  0  0  0  0  0
    2.2768   -1.3771    0.0200 C   0  0  0  0  0  0  0  0  0  0  0  0
   -0.4542    3.6089    1.1595 C   0  0  0  0  0  0  0  0  0  0  0  0
    1.5149   -3.4383   -0.0606 C   0  0  0  0  0  0  0  0  0  0  0  0
    1.0233   -4.8115    0.1356 C   0  0  2  0  0  0  0  0  0  0  0  0
    1.9287   -2.4762    0.8280 C   0  0  0  0  0  0  0  0  0  0  0  0
   -1.8828    1.7658    0.1404 C   0  0  0  0  0  0  0  0  0  0  0  0
   -0.4997   -4.8910    0.3455 C   0  0  0  0  0  0  0  0  0  0  0  0
   -1.8116    0.4361   -0.2747 C   0  0  0  0  0  0  0  0  0  0  0  0
   -3.1193    2.3378    0.4397 C   0  0  0  0  0  0  0  0  0  0  0  0
   -2.9769   -0.3219   -0.3907 C   0  0  0  0  0  0  0  0  0  0  0  0
   -4.2846    1.5800    0.3236 C   0  0  0  0  0  0  0  0  0  0  0  0
   -4.2134    0.2502   -0.0914 C   0  0  0  0  0  0  0  0  0  0  0  0
   -5.4343   -0.4917   -0.1977 C   0  0  0  0  0  0  0  0  0  0  0  0
    3.7044    2.2951    0.8110 H   0  0  0  0  0  0  0  0  0  0  0  0
    2.4315    3.1838   -1.8503 H   0  0  0  0  0  0  0  0  0  0  0  0
    3.0214    4.2724   -0.5675 H   0  0  0  0  0  0  0  0  0  0  0  0
    2.8848    0.5976   -1.5098 H   0  0  0  0  0  0  0  0  0  0  0  0
    5.3926    3.3062   -0.6970 H   0  0  0  0  0  0  0  0  0  0  0  0
    5.6509    1.5597   -0.5388 H   0  0  0  0  0  0  0  0  0  0  0  0
    4.9060    2.2094   -2.0041 H   0  0  0  0  0  0  0  0  0  0  0  0
    1.4423    4.8007    1.3156 H   0  0  0  0  0  0  0  0  0  0  0  0
   -1.1118    4.0240    1.9099 H   0  0  0  0  0  0  0  0  0  0  0  0
    1.2892   -5.4252   -0.7337 H   0  0  0  0  0  0  0  0  0  0  0  0
    1.9696   -2.5599    1.9046 H   0  0  0  0  0  0  0  0  0  0  0  0
    1.4201   -3.2971   -2.1953 H   0  0  0  0  0  0  0  0  0  0  0  0
   -0.8024   -4.3214    1.2315 H   0  0  0  0  0  0  0  0  0  0  0  0
   -0.8113   -5.9280    0.5100 H   0  0  0  0  0  0  0  0  0  0  0  0
   -1.0369   -4.4974   -0.5222 H   0  0  0  0  0  0  0  0  0  0  0  0
   -0.8524   -0.0250   -0.5028 H   0  0  0  0  0  0  0  0  0  0  0  0
   -3.2084    3.3741    0.7559 H   0  0  0  0  0  0  0  0  0  0  0  0
   -5.2405    2.0426    0.5587 H   0  0  0  0  0  0  0  0  0  0  0  0
    1.3387   -6.3376    1.3298 H   0  0  0  0  0  0  0  0  0  0  0  0
  1 25  1  0  0  0  0
  2 14  2  0  0  0  0
  3 19  1  0  0  0  0
  3 47  1  0  0  0  0
  4  6  1  0  0  0  0
  4 11  1  0  0  0  0
  4 13  1  0  0  0  0
  5 10  1  0  0  0  0
  5 14  1  0  0  0  0
  5 32  1  0  0  0  0
  6 15  2  0  0  0  0
  7  8  1  0  0  0  0
  7 18  1  0  0  0  0
  7 40  1  0  0  0  0
  8 16  2  0  0  0  0
  9 28  3  0  0  0  0
 10 11  1  0  0  0  0
 10 12  1  0  0  0  0
 10 29  1  0  0  0  0
 11 30  1  0  0  0  0
 11 31  1  0  0  0  0
 12 33  1  0  0  0  0
 12 34  1  0  0  0  0
 12 35  1  0  0  0  0
 13 17  2  0  0  0  0
 13 36  1  0  0  0  0
 14 16  1  0  0  0  0
 15 17  1  0  0  0  0
 15 21  1  0  0  0  0
 16 20  1  0  0  0  0
 17 37  1  0  0  0  0
 18 19  1  0  0  0  0
 18 20  2  0  0  0  0
 19 22  1  0  0  0  0
 19 38  1  0  0  0  0
 20 39  1  0  0  0  0
 21 23  2  0  0  0  0
 21 24  1  0  0  0  0
 22 41  1  0  0  0  0
 22 42  1  0  0  0  0
 22 43  1  0  0  0  0
 23 25  1  0  0  0  0
 23 44  1  0  0  0  0
 24 26  2  0  0  0  0
 24 45  1  0  0  0  0
 25 27  2  0  0  0  0
 26 27  1  0  0  0  0
 26 46  1  0  0  0  0
 27 28  1  0  0  0  0
M  END
> <PUBCHEM_COMPOUND_CID>
67171867

> <PUBCHEM_CONFORMER_RMSD>
1.2

> <PUBCHEM_CONFORMER_DIVERSEORDER>
1
51
94
78
36
35
67
47
66
60
12
41
62
64
73
42
2
21
9
46
81
5
18
90
20
48
95
6
58
7
88
52
92
82
24
34
27
75
71
56
65
45
15
68
8
54
77
11
44
14
79
76
96
55
38
31
80
86
13
63
40
53
72
85
32
26
83
19
33
59
16
97
84
39
37
74
22
3
70
50
25
93
87
17
4
49
10
69
61
28
43
91
29
23
30
57
89

> <PUBCHEM_MMFF94_PARTIAL_CHARGES>
35
1 -0.18
10 0.3
11 0.26
13 -0.3
14 0.72
15 0.23
16 0.2
17 -0.15
18 -0.33
19 0.46
2 -0.57
20 -0.15
21 0.05
23 -0.15
24 -0.15
25 0.18
26 -0.15
27 0.07
28 0.48
3 -0.68
32 0.37
36 0.15
37 0.15
39 0.15
4 0.31
40 0.27
44 0.15
45 0.15
46 0.15
47 0.4
5 -0.73
6 -0.71
7 0.3
8 -0.71
9 -0.56

> <PUBCHEM_EFFECTIVE_ROTOR_COUNT>
7

> <PUBCHEM_PHARMACOPHORE_FEATURES>
11
1 2 acceptor
1 3 acceptor
1 3 donor
1 5 donor
1 6 acceptor
1 7 donor
1 8 acceptor
1 9 acceptor
5 4 6 13 15 17 rings
5 7 8 16 18 20 rings
6 21 23 24 25 26 27 rings

> <PUBCHEM_HEAVY_ATOM_COUNT>
28

> <PUBCHEM_ATOM_DEF_STEREO_COUNT>
1

> <PUBCHEM_ATOM_UDEF_STEREO_COUNT>
1

> <PUBCHEM_BOND_DEF_STEREO_COUNT>
0

> <PUBCHEM_BOND_UDEF_STEREO_COUNT>
0

> <PUBCHEM_ISOTOPIC_ATOM_COUNT>
0

> <PUBCHEM_COMPONENT_COUNT>
1

> <PUBCHEM_CACTVS_TAUTO_COUNT>
7

> <PUBCHEM_CONFORMER_ID>
0400F61B00000001

> <PUBCHEM_MMFF94_ENERGY>
39.6366

> <PUBCHEM_FEATURE_SELFOVERLAP>
55.824

> <PUBCHEM_SHAPE_FINGERPRINT>
10316853 100 18124030389065704923
1100329 8 18195522829921841188
11014199 57 17906169547155208195
11756154 67 17474395673423910551
12553582 1 18271515485733878653
12990986 174 17184186141824565522
13122387 1 17475796450831437251
1361 2 18410574028708052107
138480 1 18121501245796477318
14863182 85 18409736170672425164
15110567 62 18339363071366034129
15483637 11 17545885287922553815
15927050 60 18197216069835333143
15968369 153 16905802433391588207
161222 619 18193296271847772107
16993438 75 17756716590840001442
19930381 70 18337952277815068371
20028762 73 18342459210574281758
20775530 9 17910110205249617665
21421861 104 18338812104007852657
23559900 14 18123745353366011365
3882209 13 17614806688419949407
463206 1 18125722546072217013
5309563 4 18341329977467011367
56633871 153 17691971462676774425
653340 110 16971669798376378033

> <PUBCHEM_SHAPE_MULTIPOLES>
536.47
9
7.57
1.07
10.1
8.66
0.09
-3
-1.69
-4.94
1.86
-0.64
0.15
-1.32

> <PUBCHEM_SHAPE_SELFOVERLAP>
1138.827

> <PUBCHEM_SHAPE_VOLUME>
301

> <PUBCHEM_COORDINATE_TYPE>
2
5
10

$$$$
