11610526
  -OEChem-01082000273D

 45 47  0     0  0  0  0  0  0999 V2000
   -1.8522   -1.4674    0.9944 F   0  0  0  0  0  0  0  0  0  0  0  0
   -5.1135    1.4062   -0.9209 F   0  0  0  0  0  0  0  0  0  0  0  0
   -6.1116   -3.1583   -0.1795 F   0  0  0  0  0  0  0  0  0  0  0  0
    4.5354    2.0283   -0.0752 O   0  0  0  0  0  0  0  0  0  0  0  0
   -2.9858    2.2336    0.2835 O   0  0  0  0  0  0  0  0  0  0  0  0
    5.1975   -2.5959    0.0949 N   0  0  0  0  0  0  0  0  0  0  0  0
    1.1703    1.0656   -0.0524 N   0  0  0  0  0  0  0  0  0  0  0  0
   -1.1738    0.7621    0.0105 N   0  0  0  0  0  0  0  0  0  0  0  0
    3.6393   -0.1573   -0.3225 C   0  0  0  0  0  0  0  0  0  0  0  0
    3.7147   -0.8531    1.0355 C   0  0  0  0  0  0  0  0  0  0  0  0
    4.8741   -0.4882   -1.1586 C   0  0  0  0  0  0  0  0  0  0  0  0
    3.9777   -2.3516    0.8772 C   0  0  0  0  0  0  0  0  0  0  0  0
    5.0972   -1.9992   -1.2441 C   0  0  0  0  0  0  0  0  0  0  0  0
    3.5305    1.3226   -0.1228 C   0  0  0  0  0  0  0  0  0  0  0  0
    5.4635   -4.0310   -0.0031 C   0  0  0  0  0  0  0  0  0  0  0  0
    2.1803    1.9373    0.0184 C   0  0  0  0  0  0  0  0  0  0  0  0
    2.0854    3.2888    0.2006 C   0  0  0  0  0  0  0  0  0  0  0  0
   -0.0611    1.6091    0.0731 C   0  0  0  0  0  0  0  0  0  0  0  0
    0.8025    3.8106    0.3255 C   0  0  0  0  0  0  0  0  0  0  0  0
   -0.2966    2.9614    0.2619 C   0  0  0  0  0  0  0  0  0  0  0  0
   -2.5240    1.1100    0.1154 C   0  0  0  0  0  0  0  0  0  0  0  0
   -3.4792   -0.0263    0.0371 C   0  0  0  0  0  0  0  0  0  0  0  0
   -3.0773   -1.2658    0.4889 C   0  0  0  0  0  0  0  0  0  0  0  0
   -4.7362    0.1958   -0.4852 C   0  0  0  0  0  0  0  0  0  0  0  0
   -3.9735   -2.3321    0.4151 C   0  0  0  0  0  0  0  0  0  0  0  0
   -5.6323   -0.8705   -0.5589 C   0  0  0  0  0  0  0  0  0  0  0  0
   -5.2510   -2.1345   -0.1087 C   0  0  0  0  0  0  0  0  0  0  0  0
    2.7708   -0.5283   -0.8798 H   0  0  0  0  0  0  0  0  0  0  0  0
    2.7809   -0.7061    1.5917 H   0  0  0  0  0  0  0  0  0  0  0  0
    4.5098   -0.4049    1.6468 H   0  0  0  0  0  0  0  0  0  0  0  0
    5.7729   -0.0261   -0.7285 H   0  0  0  0  0  0  0  0  0  0  0  0
    4.7665   -0.0740   -2.1687 H   0  0  0  0  0  0  0  0  0  0  0  0
    4.0858   -2.7864    1.8784 H   0  0  0  0  0  0  0  0  0  0  0  0
    3.1085   -2.8300    0.4066 H   0  0  0  0  0  0  0  0  0  0  0  0
    4.2822   -2.4600   -1.8180 H   0  0  0  0  0  0  0  0  0  0  0  0
    6.0262   -2.1759   -1.7999 H   0  0  0  0  0  0  0  0  0  0  0  0
    5.5879   -4.4682    0.9938 H   0  0  0  0  0  0  0  0  0  0  0  0
    6.3990   -4.2128   -0.5437 H   0  0  0  0  0  0  0  0  0  0  0  0
    4.6578   -4.5676   -0.5173 H   0  0  0  0  0  0  0  0  0  0  0  0
    2.9444    3.9474    0.2496 H   0  0  0  0  0  0  0  0  0  0  0  0
    0.6613    4.8774    0.4723 H   0  0  0  0  0  0  0  0  0  0  0  0
   -1.2561    3.4398    0.3671 H   0  0  0  0  0  0  0  0  0  0  0  0
   -0.9317   -0.2130   -0.1440 H   0  0  0  0  0  0  0  0  0  0  0  0
   -3.6767   -3.3161    0.7655 H   0  0  0  0  0  0  0  0  0  0  0  0
   -6.6269   -0.7168   -0.9667 H   0  0  0  0  0  0  0  0  0  0  0  0
  1 23  1  0  0  0  0
  2 24  1  0  0  0  0
  3 27  1  0  0  0  0
  4 14  2  0  0  0  0
  5 21  2  0  0  0  0
  6 12  1  0  0  0  0
  6 13  1  0  0  0  0
  6 15  1  0  0  0  0
  7 16  2  0  0  0  0
  7 18  1  0  0  0  0
  8 18  1  0  0  0  0
  8 21  1  0  0  0  0
  8 43  1  0  0  0  0
  9 10  1  0  0  0  0
  9 11  1  0  0  0  0
  9 14  1  0  0  0  0
  9 28  1  0  0  0  0
 10 12  1  0  0  0  0
 10 29  1  0  0  0  0
 10 30  1  0  0  0  0
 11 13  1  0  0  0  0
 11 31  1  0  0  0  0
 11 32  1  0  0  0  0
 12 33  1  0  0  0  0
 12 34  1  0  0  0  0
 13 35  1  0  0  0  0
 13 36  1  0  0  0  0
 14 16  1  0  0  0  0
 15 37  1  0  0  0  0
 15 38  1  0  0  0  0
 15 39  1  0  0  0  0
 16 17  1  0  0  0  0
 17 19  2  0  0  0  0
 17 40  1  0  0  0  0
 18 20  2  0  0  0  0
 19 20  1  0  0  0  0
 19 41  1  0  0  0  0
 20 42  1  0  0  0  0
 21 22  1  0  0  0  0
 22 23  2  0  0  0  0
 22 24  1  0  0  0  0
 23 25  1  0  0  0  0
 24 26  2  0  0  0  0
 25 27  2  0  0  0  0
 25 44  1  0  0  0  0
 26 27  1  0  0  0  0
 26 45  1  0  0  0  0
M  END
> <PUBCHEM_COMPOUND_CID>
11610526

> <PUBCHEM_CONFORMER_RMSD>
0.8

> <PUBCHEM_CONFORMER_DIVERSEORDER>
1
28
50
62
64
25
34
14
40
37
57
54
47
12
36
44
49
43
53
26
55
61
42
13
51
3
30
19
7
63
35
32
31
46
17
39
33
48
59
8
27
15
2
5
60
56
18
6
4
11
41
45
9
20
23
52
38
10
29
16
58
22
21
24

> <PUBCHEM_MMFF94_PARTIAL_CHARGES>
31
1 -0.19
12 0.27
13 0.27
14 0.42
15 0.27
16 0.4
17 -0.15
18 0.43
19 -0.15
2 -0.19
20 -0.15
21 0.54
22 0.09
23 0.19
24 0.19
25 -0.15
26 -0.15
27 0.19
3 -0.19
4 -0.57
40 0.15
41 0.15
42 0.15
43 0.37
44 0.15
45 0.15
5 -0.57
6 -0.81
7 -0.62
8 -0.55
9 0.06

> <PUBCHEM_EFFECTIVE_ROTOR_COUNT>
6.2

> <PUBCHEM_PHARMACOPHORE_FEATURES>
8
1 4 acceptor
1 5 acceptor
1 6 cation
1 7 acceptor
1 8 donor
6 22 23 24 25 26 27 rings
6 6 9 10 11 12 13 rings
6 7 16 17 18 19 20 rings

> <PUBCHEM_HEAVY_ATOM_COUNT>
27

> <PUBCHEM_ATOM_DEF_STEREO_COUNT>
0

> <PUBCHEM_ATOM_UDEF_STEREO_COUNT>
0

> <PUBCHEM_BOND_DEF_STEREO_COUNT>
0

> <PUBCHEM_BOND_UDEF_STEREO_COUNT>
0

> <PUBCHEM_ISOTOPIC_ATOM_COUNT>
0

> <PUBCHEM_COMPONENT_COUNT>
1

> <PUBCHEM_CACTVS_TAUTO_COUNT>
6

> <PUBCHEM_CONFORMER_ID>
00B1299E00000001

> <PUBCHEM_MMFF94_ENERGY>
67.0003

> <PUBCHEM_FEATURE_SELFOVERLAP>
40.597

> <PUBCHEM_SHAPE_FINGERPRINT>
10622 236 17772734203789308463
10693767 8 17983277516876858903
117089 54 17913220767318041278
11719270 70 18194396926132079264
12107183 9 18271259218352706497
12422481 6 17060056999744036452
13533116 47 18268149940991766289
13631057 29 18339651036739598324
13911852 28 18412543197597326927
13955234 65 17984419912729595145
14251740 57 18343580746588687994
14347332 77 18339637949689540591
14866123 147 18125445207302207905
14910302 57 18114453500848432605
14931854 50 18186527583724927350
15003188 105 18186793687161236114
15183329 4 18334009493494640355
15250474 111 18191027794638691546
15320467 1 18122625221522009422
15352361 1 18411138013452880650
17492 89 18412261757112093425
17909252 39 18339926029693164824
19246450 95 11309826579845112654
19958102 18 18114731707935130271
20645477 70 18267304407443568460
20775438 99 18050269655564308986
21033650 10 16805599209866911077
21279426 13 18334287648546040469
21703447 108 18270954773168560985
23559900 14 18411410744129943017
23569914 152 17980164584620089847
25222932 49 18199467847582500732
2748736 6 8862657963044739231
2838139 119 8502359024056654152
3004659 81 18113898234981555586
32027 91 18339914922659790824
325973 47 18409452449227852506
3421961 26 18341610460200983112
345986 75 17704080615476176416
4073 2 18190182471701737793
44062 13 18336543820457299317
46194498 28 17531806999074572349
5104073 3 17988647375939889688
5309563 4 18341335517858915254
56633871 153 18197227944485366203
7970288 3 18267020557835454206
960060 61 17894638049907542620
9709674 26 18191306181417547129

> <PUBCHEM_SHAPE_MULTIPOLES>
507.14
15.07
4.83
0.88
5.57
0.12
0.06
-15.59
2.76
-3.41
-0.51
-0.52
-0.28
0.24

> <PUBCHEM_SHAPE_SELFOVERLAP>
1099.071

> <PUBCHEM_SHAPE_VOLUME>
276.5

> <PUBCHEM_COORDINATE_TYPE>
2
5
10

$$$$
