25185057
  -OEChem-01082001073D

 80 83  0     1  0  0  0  0  0999 V2000
    3.1385   -2.6940    0.1756 S   0  0  0  0  0  0  0  0  0  0  0  0
    0.3478   -1.6806   -0.3118 O   0  0  0  0  0  0  0  0  0  0  0  0
   -1.6943    3.8386   -0.1126 O   0  0  0  0  0  0  0  0  0  0  0  0
   -4.3223   -1.6520    2.4067 O   0  0  0  0  0  0  0  0  0  0  0  0
    1.1751   -0.5479   -2.1397 O   0  0  0  0  0  0  0  0  0  0  0  0
    3.1425   -0.3699    2.2889 O   0  0  0  0  0  0  0  0  0  0  0  0
    6.9495    1.9906    0.4479 N   0  0  0  0  0  0  0  0  0  0  0  0
   -3.6252    0.6285   -0.2308 C   0  0  1  0  0  0  0  0  0  0  0  0
   -2.9864   -0.2397    0.8972 C   0  0  2  0  0  0  0  0  0  0  0  0
   -1.9814   -1.3386    0.4243 C   0  0  1  0  0  0  0  0  0  0  0  0
   -2.6729    1.7188   -0.8712 C   0  0  2  0  0  0  0  0  0  0  0  0
   -2.6952   -2.2310   -0.6569 C   0  0  1  0  0  0  0  0  0  0  0  0
   -4.2153   -0.3082   -1.3335 C   0  0  0  0  0  0  0  0  0  0  0  0
   -4.8020    1.3085    0.5231 C   0  0  0  0  0  0  0  0  0  0  0  0
   -0.6689   -0.6760   -0.1560 C   0  0  1  0  0  0  0  0  0  0  0  0
   -3.2590   -1.3919   -1.8174 C   0  0  0  0  0  0  0  0  0  0  0  0
   -4.2425   -0.6884    1.6565 C   0  0  0  0  0  0  0  0  0  0  0  0
   -1.7092    2.4240    0.1524 C   0  0  1  0  0  0  0  0  0  0  0  0
   -5.4033    0.2442    1.4321 C   0  0  0  0  0  0  0  0  0  0  0  0
   -0.2212    1.9139    0.1790 C   0  0  2  0  0  0  0  0  0  0  0  0
   -0.0532    0.4528    0.7007 C   0  0  0  0  0  0  0  0  0  0  0  0
   -1.5800   -2.2283    1.6365 C   0  0  0  0  0  0  0  0  0  0  0  0
   -3.4707    2.7572   -1.6979 C   0  0  0  0  0  0  0  0  0  0  0  0
   -1.8551   -3.3760   -1.2360 C   0  0  0  0  0  0  0  0  0  0  0  0
    0.6093    2.8124    1.1337 C   0  0  0  0  0  0  0  0  0  0  0  0
    0.4236    2.0469   -1.1845 C   0  0  0  0  0  0  0  0  0  0  0  0
    1.2076   -1.4853   -1.3548 C   0  0  0  0  0  0  0  0  0  0  0  0
    1.7004    2.3945   -1.3778 C   0  0  0  0  0  0  0  0  0  0  0  0
    2.1948   -2.6251   -1.3657 C   0  0  0  0  0  0  0  0  0  0  0  0
    3.9145   -1.0369    0.0947 C   0  0  1  0  0  0  0  0  0  0  0  0
    4.3153   -0.5632    1.4991 C   0  0  1  0  0  0  0  0  0  0  0  0
    5.1190   -1.0952   -0.8499 C   0  0  0  0  0  0  0  0  0  0  0  0
    5.0764    0.7664    1.4404 C   0  0  0  0  0  0  0  0  0  0  0  0
    5.8596    0.2415   -0.8973 C   0  0  0  0  0  0  0  0  0  0  0  0
    6.2844    0.6893    0.5048 C   0  0  1  0  0  0  0  0  0  0  0  0
   -2.5003    0.3959    1.6425 H   0  0  0  0  0  0  0  0  0  0  0  0
   -2.0788    1.2069   -1.6260 H   0  0  0  0  0  0  0  0  0  0  0  0
   -3.5529   -2.7126   -0.1655 H   0  0  0  0  0  0  0  0  0  0  0  0
   -4.5648    0.2637   -2.1979 H   0  0  0  0  0  0  0  0  0  0  0  0
   -5.1126   -0.8199   -0.9645 H   0  0  0  0  0  0  0  0  0  0  0  0
   -5.5634    1.7118   -0.1533 H   0  0  0  0  0  0  0  0  0  0  0  0
   -4.4399    2.1402    1.1399 H   0  0  0  0  0  0  0  0  0  0  0  0
   -0.9000   -0.3008   -1.1482 H   0  0  0  0  0  0  0  0  0  0  0  0
   -3.8096   -2.0502   -2.5024 H   0  0  0  0  0  0  0  0  0  0  0  0
   -2.4576   -0.9510   -2.4187 H   0  0  0  0  0  0  0  0  0  0  0  0
   -2.1213    2.3564    1.1627 H   0  0  0  0  0  0  0  0  0  0  0  0
   -6.2184   -0.2973    0.9452 H   0  0  0  0  0  0  0  0  0  0  0  0
   -5.7452    0.6730    2.3772 H   0  0  0  0  0  0  0  0  0  0  0  0
   -0.4117    0.3974    1.7347 H   0  0  0  0  0  0  0  0  0  0  0  0
    1.0238    0.2599    0.7949 H   0  0  0  0  0  0  0  0  0  0  0  0
   -0.7142   -2.8643    1.4290 H   0  0  0  0  0  0  0  0  0  0  0  0
   -2.3827   -2.9133    1.9246 H   0  0  0  0  0  0  0  0  0  0  0  0
   -1.3271   -1.6187    2.5106 H   0  0  0  0  0  0  0  0  0  0  0  0
   -4.0452    3.4336   -1.0567 H   0  0  0  0  0  0  0  0  0  0  0  0
   -4.1702    2.2874   -2.3932 H   0  0  0  0  0  0  0  0  0  0  0  0
   -2.7970    3.3625   -2.3146 H   0  0  0  0  0  0  0  0  0  0  0  0
   -1.0853   -3.0145   -1.9225 H   0  0  0  0  0  0  0  0  0  0  0  0
   -2.4963   -4.0524   -1.8135 H   0  0  0  0  0  0  0  0  0  0  0  0
   -1.3817   -3.9770   -0.4554 H   0  0  0  0  0  0  0  0  0  0  0  0
    0.0966    2.8917    2.1014 H   0  0  0  0  0  0  0  0  0  0  0  0
    0.7314    3.8374    0.7628 H   0  0  0  0  0  0  0  0  0  0  0  0
    1.6009    2.4038    1.3626 H   0  0  0  0  0  0  0  0  0  0  0  0
   -0.1638    1.8504   -2.0757 H   0  0  0  0  0  0  0  0  0  0  0  0
   -1.2144    3.9916   -0.9434 H   0  0  0  0  0  0  0  0  0  0  0  0
    2.0791    2.4650   -2.3937 H   0  0  0  0  0  0  0  0  0  0  0  0
    2.4184    2.5951   -0.5946 H   0  0  0  0  0  0  0  0  0  0  0  0
    2.8653   -2.5150   -2.2222 H   0  0  0  0  0  0  0  0  0  0  0  0
    1.6461   -3.5620   -1.5061 H   0  0  0  0  0  0  0  0  0  0  0  0
    3.1831   -0.3214   -0.2921 H   0  0  0  0  0  0  0  0  0  0  0  0
    4.9400   -1.3158    1.9968 H   0  0  0  0  0  0  0  0  0  0  0  0
    4.8069   -1.3496   -1.8691 H   0  0  0  0  0  0  0  0  0  0  0  0
    5.8231   -1.8731   -0.5256 H   0  0  0  0  0  0  0  0  0  0  0  0
    5.3931    1.0455    2.4540 H   0  0  0  0  0  0  0  0  0  0  0  0
    4.3901    1.5624    1.1188 H   0  0  0  0  0  0  0  0  0  0  0  0
    6.7391    0.1430   -1.5454 H   0  0  0  0  0  0  0  0  0  0  0  0
    5.2089    0.9977   -1.3562 H   0  0  0  0  0  0  0  0  0  0  0  0
    6.9982   -0.0403    0.9081 H   0  0  0  0  0  0  0  0  0  0  0  0
    3.4278   -0.0781    3.1715 H   0  0  0  0  0  0  0  0  0  0  0  0
    7.7804    1.9255   -0.1387 H   0  0  0  0  0  0  0  0  0  0  0  0
    7.2730    2.2519    1.3784 H   0  0  0  0  0  0  0  0  0  0  0  0
  1 29  1  0  0  0  0
  1 30  1  0  0  0  0
  2 15  1  0  0  0  0
  2 27  1  0  0  0  0
  3 18  1  0  0  0  0
  3 64  1  0  0  0  0
  4 17  2  0  0  0  0
  5 27  2  0  0  0  0
  6 31  1  0  0  0  0
  6 78  1  0  0  0  0
  7 35  1  0  0  0  0
  7 79  1  0  0  0  0
  7 80  1  0  0  0  0
  8  9  1  0  0  0  0
  8 11  1  0  0  0  0
  8 13  1  0  0  0  0
  8 14  1  0  0  0  0
  9 10  1  0  0  0  0
  9 17  1  0  0  0  0
  9 36  1  0  0  0  0
 10 12  1  0  0  0  0
 10 15  1  0  0  0  0
 10 22  1  0  0  0  0
 11 18  1  0  0  0  0
 11 23  1  0  0  0  0
 11 37  1  0  0  0  0
 12 16  1  0  0  0  0
 12 24  1  0  0  0  0
 12 38  1  0  0  0  0
 13 16  1  0  0  0  0
 13 39  1  0  0  0  0
 13 40  1  0  0  0  0
 14 19  1  0  0  0  0
 14 41  1  0  0  0  0
 14 42  1  0  0  0  0
 15 21  1  0  0  0  0
 15 43  1  0  0  0  0
 16 44  1  0  0  0  0
 16 45  1  0  0  0  0
 17 19  1  0  0  0  0
 18 20  1  0  0  0  0
 18 46  1  0  0  0  0
 19 47  1  0  0  0  0
 19 48  1  0  0  0  0
 20 21  1  0  0  0  0
 20 25  1  0  0  0  0
 20 26  1  0  0  0  0
 21 49  1  0  0  0  0
 21 50  1  0  0  0  0
 22 51  1  0  0  0  0
 22 52  1  0  0  0  0
 22 53  1  0  0  0  0
 23 54  1  0  0  0  0
 23 55  1  0  0  0  0
 23 56  1  0  0  0  0
 24 57  1  0  0  0  0
 24 58  1  0  0  0  0
 24 59  1  0  0  0  0
 25 60  1  0  0  0  0
 25 61  1  0  0  0  0
 25 62  1  0  0  0  0
 26 28  2  0  0  0  0
 26 63  1  0  0  0  0
 27 29  1  0  0  0  0
 28 65  1  0  0  0  0
 28 66  1  0  0  0  0
 29 67  1  0  0  0  0
 29 68  1  0  0  0  0
 30 31  1  0  0  0  0
 30 32  1  0  0  0  0
 30 69  1  0  0  0  0
 31 33  1  0  0  0  0
 31 70  1  0  0  0  0
 32 34  1  0  0  0  0
 32 71  1  0  0  0  0
 32 72  1  0  0  0  0
 33 35  1  0  0  0  0
 33 73  1  0  0  0  0
 33 74  1  0  0  0  0
 34 35  1  0  0  0  0
 34 75  1  0  0  0  0
 34 76  1  0  0  0  0
 35 77  1  0  0  0  0
M  END
> <PUBCHEM_COMPOUND_CID>
25185057

> <PUBCHEM_CONFORMER_RMSD>
1

> <PUBCHEM_CONFORMER_DIVERSEORDER>
3
34
36
33
8
9
32
24
19
17
39
22
12
16
26
40
28
7
1
27
37
30
29
20
13
4
23
2
21
41
31
10
11
35
14
15
18
5
38
6
25

> <PUBCHEM_MMFF94_PARTIAL_CHARGES>
27
1 -0.46
15 0.28
17 0.45
18 0.28
19 0.06
2 -0.43
20 0.14
26 -0.29
27 0.66
28 -0.3
29 0.29
3 -0.68
30 0.23
31 0.28
35 0.27
4 -0.57
5 -0.57
6 -0.68
63 0.15
64 0.4
65 0.15
66 0.15
7 -0.99
78 0.4
79 0.36
80 0.36
9 0.06

> <PUBCHEM_EFFECTIVE_ROTOR_COUNT>
9.2

> <PUBCHEM_PHARMACOPHORE_FEATURES>
12
1 28 hydrophobe
1 3 acceptor
1 3 donor
1 4 acceptor
1 5 acceptor
1 6 acceptor
1 6 donor
1 7 cation
1 7 donor
5 8 9 14 17 19 rings
6 30 31 32 33 34 35 rings
6 8 9 10 12 13 16 rings

> <PUBCHEM_HEAVY_ATOM_COUNT>
35

> <PUBCHEM_ATOM_DEF_STEREO_COUNT>
11

> <PUBCHEM_ATOM_UDEF_STEREO_COUNT>
0

> <PUBCHEM_BOND_DEF_STEREO_COUNT>
0

> <PUBCHEM_BOND_UDEF_STEREO_COUNT>
0

> <PUBCHEM_ISOTOPIC_ATOM_COUNT>
0

> <PUBCHEM_COMPONENT_COUNT>
1

> <PUBCHEM_CACTVS_TAUTO_COUNT>
2

> <PUBCHEM_CONFORMER_ID>
01804B2100000003

> <PUBCHEM_MMFF94_ENERGY>
130.6779

> <PUBCHEM_FEATURE_SELFOVERLAP>
61.078

> <PUBCHEM_SHAPE_FINGERPRINT>
10290309 65 18336831879482270262
10675989 125 16965746162413610141
11112241 14 17488439997217095872
11513181 2 18200309888600600870
11578080 2 17630339544840723001
11595378 159 17967810492796075762
12035758 1 18265354896761539195
12422481 6 18341061765022211169
12467345 10 17749392581058546232
12596602 18 17312827082655610674
12788726 201 18336259046882499712
13140716 1 18267311021893190209
13402501 40 18342178851750965304
13583140 156 17385432237330862311
14068700 675 17414692557161116519
14790565 3 17695911025381931145
14840074 17 18202003230880059036
14955137 171 18341065089194835026
15001296 14 18264209295687040524
15575132 122 18410009975217093652
15840311 113 17057828217562144545
17349148 13 18334579018816262372
20511986 3 17677317339052727196
20764821 26 18267586986200111300
21033648 144 18060131042626057534
21033648 29 18200585887303649882
22182313 1 18268156353040355391
23559900 14 17977944584253912462
3380486 145 18343588468718236331
376196 1 17541651721832205421
463206 1 18266743656776750484
497634 4 17132110260482007743

> <PUBCHEM_SHAPE_MULTIPOLES>
689.81
12.59
3.75
1.97
15.4
0.77
0.26
1.85
3.17
-0.94
-0.96
-0.77
-0.43
1.05

> <PUBCHEM_SHAPE_SELFOVERLAP>
1422.283

> <PUBCHEM_SHAPE_VOLUME>
398.4

> <PUBCHEM_COORDINATE_TYPE>
2
5
10

$$$$
