56944144
  -OEChem-01082001543D

 50 53  0     1  0  0  0  0  0999 V2000
    4.2699    1.0572    3.0758 F   0  0  0  0  0  0  0  0  0  0  0  0
   -6.3914    1.5263    1.0096 F   0  0  0  0  0  0  0  0  0  0  0  0
    0.7830   -0.8740   -0.1854 O   0  0  0  0  0  0  0  0  0  0  0  0
   -0.8980    2.3717   -2.2357 O   0  0  0  0  0  0  0  0  0  0  0  0
   -1.0059    1.9259    0.0694 N   0  0  0  0  0  0  0  0  0  0  0  0
   -2.8088    1.5630    1.5779 N   0  0  0  0  0  0  0  0  0  0  0  0
   -1.0492   -3.8720    0.8589 N   0  0  0  0  0  0  0  0  0  0  0  0
   -0.9525   -3.7858   -1.5475 N   0  0  0  0  0  0  0  0  0  0  0  0
    1.9034    0.9743   -1.1761 C   0  0  2  0  0  0  0  0  0  0  0  0
    1.0849    2.2250   -1.0413 C   0  0  1  0  0  0  0  0  0  0  0  0
    1.8996    1.9910   -2.2797 C   0  0  0  0  0  0  0  0  0  0  0  0
    1.1551   -0.2940   -1.4264 C   0  0  0  0  0  0  0  0  0  0  0  0
    3.1461    0.7926   -0.3743 C   0  0  0  0  0  0  0  0  0  0  0  0
   -0.3845    2.1832   -1.1414 C   0  0  0  0  0  0  0  0  0  0  0  0
    3.1257    1.0126    1.0029 C   0  0  0  0  0  0  0  0  0  0  0  0
    4.3301    0.4035   -1.0010 C   0  0  0  0  0  0  0  0  0  0  0  0
    4.2891    0.8437    1.7537 C   0  0  0  0  0  0  0  0  0  0  0  0
    5.4937    0.2348   -0.2503 C   0  0  0  0  0  0  0  0  0  0  0  0
    0.0754   -2.0477   -0.2371 C   0  0  0  0  0  0  0  0  0  0  0  0
    5.4732    0.4547    1.1270 C   0  0  0  0  0  0  0  0  0  0  0  0
   -2.3957    1.8215    0.3168 C   0  0  0  0  0  0  0  0  0  0  0  0
   -0.3512   -2.7177    0.8913 C   0  0  0  0  0  0  0  0  0  0  0  0
   -0.2574   -2.6342   -1.4411 C   0  0  0  0  0  0  0  0  0  0  0  0
   -3.2510    1.9916   -0.7599 C   0  0  0  0  0  0  0  0  0  0  0  0
   -0.0471   -2.1726    2.2474 C   0  0  0  0  0  0  0  0  0  0  0  0
   -4.6183    1.8902   -0.5275 C   0  0  0  0  0  0  0  0  0  0  0  0
   -1.3114   -4.3430   -0.3751 C   0  0  0  0  0  0  0  0  0  0  0  0
   -4.1446    1.4713    1.7652 C   0  0  0  0  0  0  0  0  0  0  0  0
   -5.0817    1.6252    0.7563 C   0  0  0  0  0  0  0  0  0  0  0  0
   -2.0804   -5.6182   -0.4525 C   0  0  0  0  0  0  0  0  0  0  0  0
    1.4575    3.0089   -0.3862 H   0  0  0  0  0  0  0  0  0  0  0  0
    1.4062    1.7372   -3.2110 H   0  0  0  0  0  0  0  0  0  0  0  0
    2.7700    2.6227   -2.4236 H   0  0  0  0  0  0  0  0  0  0  0  0
    1.8185   -0.9790   -1.9725 H   0  0  0  0  0  0  0  0  0  0  0  0
    0.2696   -0.1144   -2.0484 H   0  0  0  0  0  0  0  0  0  0  0  0
    2.2103    1.3110    1.5071 H   0  0  0  0  0  0  0  0  0  0  0  0
    4.3596    0.2266   -2.0730 H   0  0  0  0  0  0  0  0  0  0  0  0
   -0.4208    1.7903    0.8903 H   0  0  0  0  0  0  0  0  0  0  0  0
    6.4155   -0.0684   -0.7381 H   0  0  0  0  0  0  0  0  0  0  0  0
    6.3789    0.3235    1.7116 H   0  0  0  0  0  0  0  0  0  0  0  0
    0.0100   -2.2315   -2.4105 H   0  0  0  0  0  0  0  0  0  0  0  0
   -2.9660    2.1978   -1.7785 H   0  0  0  0  0  0  0  0  0  0  0  0
    1.0351   -2.1009    2.3966 H   0  0  0  0  0  0  0  0  0  0  0  0
   -0.4522   -2.8200    3.0322 H   0  0  0  0  0  0  0  0  0  0  0  0
   -0.4925   -1.1797    2.3680 H   0  0  0  0  0  0  0  0  0  0  0  0
   -5.3229    2.0176   -1.3439 H   0  0  0  0  0  0  0  0  0  0  0  0
   -4.4548    1.2641    2.7840 H   0  0  0  0  0  0  0  0  0  0  0  0
   -1.3911   -6.4581   -0.5798 H   0  0  0  0  0  0  0  0  0  0  0  0
   -2.6643   -5.7801    0.4590 H   0  0  0  0  0  0  0  0  0  0  0  0
   -2.7728   -5.5996   -1.2999 H   0  0  0  0  0  0  0  0  0  0  0  0
  1 17  1  0  0  0  0
  2 29  1  0  0  0  0
  3 12  1  0  0  0  0
  3 19  1  0  0  0  0
  4 14  2  0  0  0  0
  5 14  1  0  0  0  0
  5 21  1  0  0  0  0
  5 38  1  0  0  0  0
  6 21  2  0  0  0  0
  6 28  1  0  0  0  0
  7 22  2  0  0  0  0
  7 27  1  0  0  0  0
  8 23  1  0  0  0  0
  8 27  2  0  0  0  0
  9 10  1  0  0  0  0
  9 11  1  0  0  0  0
  9 12  1  0  0  0  0
  9 13  1  0  0  0  0
 10 11  1  0  0  0  0
 10 14  1  0  0  0  0
 10 31  1  0  0  0  0
 11 32  1  0  0  0  0
 11 33  1  0  0  0  0
 12 34  1  0  0  0  0
 12 35  1  0  0  0  0
 13 15  2  0  0  0  0
 13 16  1  0  0  0  0
 15 17  1  0  0  0  0
 15 36  1  0  0  0  0
 16 18  2  0  0  0  0
 16 37  1  0  0  0  0
 17 20  2  0  0  0  0
 18 20  1  0  0  0  0
 18 39  1  0  0  0  0
 19 22  1  0  0  0  0
 19 23  2  0  0  0  0
 20 40  1  0  0  0  0
 21 24  1  0  0  0  0
 22 25  1  0  0  0  0
 23 41  1  0  0  0  0
 24 26  2  0  0  0  0
 24 42  1  0  0  0  0
 25 43  1  0  0  0  0
 25 44  1  0  0  0  0
 25 45  1  0  0  0  0
 26 29  1  0  0  0  0
 26 46  1  0  0  0  0
 27 30  1  0  0  0  0
 28 29  2  0  0  0  0
 28 47  1  0  0  0  0
 30 48  1  0  0  0  0
 30 49  1  0  0  0  0
 30 50  1  0  0  0  0
M  END
> <PUBCHEM_COMPOUND_CID>
56944144

> <PUBCHEM_CONFORMER_RMSD>
1

> <PUBCHEM_CONFORMER_DIVERSEORDER>
1
105
46
120
103
99
17
62
94
108
89
83
93
74
21
58
79
38
113
55
107
35
22
63
67
65
53
19
27
104
28
98
100
44
102
13
119
56
112
75
78
117
61
87
86
39
47
64
101
18
49
45
76
88
60
110
48
69
33
106
25
14
114
20
66
84
42
95
12
68
85
30
116
26
77
16
11
118
57
82
24
50
34
115
92
52
15
70
10
51
72
97
96
40
111
32
90
73
5
23
36
109
91
9
81
7
41
54
8
29
4
2
31
80
43
59
3
71
37
6

> <PUBCHEM_MMFF94_PARTIAL_CHARGES>
42
1 -0.19
10 -0.1
11 -0.2
12 0.38
13 -0.03
14 0.63
15 -0.15
16 -0.15
17 0.19
18 -0.15
19 0.08
2 -0.19
20 -0.15
21 0.43
22 0.17
23 0.16
24 -0.15
25 0.14
26 -0.15
27 0.48
28 0.16
29 0.19
3 -0.36
30 0.14
31 0.1
32 0.1
33 0.1
36 0.15
37 0.15
38 0.37
39 0.15
4 -0.57
40 0.15
41 0.15
42 0.15
46 0.15
47 0.15
5 -0.55
6 -0.62
7 -0.62
8 -0.62
9 -0.06

> <PUBCHEM_EFFECTIVE_ROTOR_COUNT>
7.6

> <PUBCHEM_PHARMACOPHORE_FEATURES>
8
1 3 acceptor
1 4 acceptor
1 5 donor
1 7 acceptor
3 7 8 27 cation
6 13 15 16 17 18 20 rings
6 6 21 24 26 28 29 rings
6 7 8 19 22 23 27 rings

> <PUBCHEM_HEAVY_ATOM_COUNT>
30

> <PUBCHEM_ATOM_DEF_STEREO_COUNT>
2

> <PUBCHEM_ATOM_UDEF_STEREO_COUNT>
0

> <PUBCHEM_BOND_DEF_STEREO_COUNT>
0

> <PUBCHEM_BOND_UDEF_STEREO_COUNT>
0

> <PUBCHEM_ISOTOPIC_ATOM_COUNT>
0

> <PUBCHEM_COMPONENT_COUNT>
1

> <PUBCHEM_CACTVS_TAUTO_COUNT>
5

> <PUBCHEM_CONFORMER_ID>
0364E61000000001

> <PUBCHEM_MMFF94_ENERGY>
86.0062

> <PUBCHEM_FEATURE_SELFOVERLAP>
40.597

> <PUBCHEM_SHAPE_FINGERPRINT>
10074138 170 18266160881254616122
10653451 467 18050015393600729210
10764073 3 15359926064279888795
11421498 54 17915187814893976017
11488393 25 17833554496332013514
11578080 2 18059015124571318536
12156800 1 17982417633567611779
12422481 6 18116421544994189864
12633046 712 16914014445991120076
12788726 201 17904489854133278446
13540713 5 17971760123705986676
13692114 37 18271526494183301799
14150022 121 17836624681369727792
14363568 33 17692260638345776111
14863182 85 18192730972093072101
14866123 147 18336254679185972354
15338160 23 17981589770480227208
15420108 30 18337100160471986515
16728300 4 17096912578184030864
17138139 8 17986367080004126295
18681886 176 18187943754680690068
1979834 28 18191601769789070497
20028762 73 18412268350330206311
20567600 347 18339651018662956481
21315764 371 18130791144642371225
21344244 78 17474938205008186186
22956985 138 17609498220179090122
23536364 44 10159703473447671395
238918 7 18337684013683045503
244849 19 17202785781483701004
24893989 43 15083914806014620265
255183 313 18261938692469408400
3383291 50 18052539868773262638
345986 75 17758099780963488874
4066623 53 17692231347143512863
427121 178 18272652303505349960
465052 167 17458639890509338360
469060 322 18114729495821218893
59755656 520 18343013368334009180
6438718 38 18337396053659028726
86090 222 18123776169798876951

> <PUBCHEM_SHAPE_MULTIPOLES>
571.18
10
5.65
2.22
0.75
10.9
-0.71
-8.41
-5.12
-7.06
1.53
1.19
-0.56
-0.88

> <PUBCHEM_SHAPE_SELFOVERLAP>
1244.991

> <PUBCHEM_SHAPE_VOLUME>
312.4

> <PUBCHEM_COORDINATE_TYPE>
2
5
10

$$$$
