9948102
  -OEChem-01082001233D

 46 47  0     0  0  0  0  0  0999 V2000
   -8.2264    1.8074    0.4878 Cl  0  0  0  0  0  0  0  0  0  0  0  0
    0.4322   -0.5504   -0.0208 O   0  0  0  0  0  0  0  0  0  0  0  0
    5.2500   -0.1295    0.3106 N   0  0  0  0  0  0  0  0  0  0  0  0
    6.5396   -0.8281    0.2157 C   0  0  0  0  0  0  0  0  0  0  0  0
    5.2449    1.0902   -0.5092 C   0  0  0  0  0  0  0  0  0  0  0  0
    7.6889    0.0709    0.6740 C   0  0  0  0  0  0  0  0  0  0  0  0
    6.3519    2.0519   -0.0745 C   0  0  0  0  0  0  0  0  0  0  0  0
    7.7184    1.3772   -0.1113 C   0  0  0  0  0  0  0  0  0  0  0  0
    4.1571   -1.0171   -0.0860 C   0  0  0  0  0  0  0  0  0  0  0  0
    2.8125   -0.3297    0.1284 C   0  0  0  0  0  0  0  0  0  0  0  0
    1.6528   -1.2387   -0.2557 C   0  0  0  0  0  0  0  0  0  0  0  0
   -0.6922   -1.3502   -0.3615 C   0  0  0  0  0  0  0  0  0  0  0  0
   -1.9621   -0.5567   -0.0871 C   0  0  0  0  0  0  0  0  0  0  0  0
   -3.2138   -1.3675   -0.4188 C   0  0  0  0  0  0  0  0  0  0  0  0
   -4.4716   -0.5692   -0.1905 C   0  0  0  0  0  0  0  0  0  0  0  0
   -5.0866   -0.6060    1.0522 C   0  0  0  0  0  0  0  0  0  0  0  0
   -4.9954    0.1888   -1.2275 C   0  0  0  0  0  0  0  0  0  0  0  0
   -6.2515    0.1318    1.2627 C   0  0  0  0  0  0  0  0  0  0  0  0
   -6.1603    0.9267   -1.0169 C   0  0  0  0  0  0  0  0  0  0  0  0
   -6.7883    0.8982    0.2282 C   0  0  0  0  0  0  0  0  0  0  0  0
    6.7254   -1.1674   -0.8119 H   0  0  0  0  0  0  0  0  0  0  0  0
    6.5283   -1.7186    0.8559 H   0  0  0  0  0  0  0  0  0  0  0  0
    4.3207    1.6617   -0.3950 H   0  0  0  0  0  0  0  0  0  0  0  0
    5.3596    0.8502   -1.5744 H   0  0  0  0  0  0  0  0  0  0  0  0
    7.5798    0.2901    1.7438 H   0  0  0  0  0  0  0  0  0  0  0  0
    8.6422   -0.4555    0.5514 H   0  0  0  0  0  0  0  0  0  0  0  0
    6.3578    2.9312   -0.7287 H   0  0  0  0  0  0  0  0  0  0  0  0
    6.1496    2.4112    0.9427 H   0  0  0  0  0  0  0  0  0  0  0  0
    8.4805    2.0474    0.3013 H   0  0  0  0  0  0  0  0  0  0  0  0
    7.9977    1.1724   -1.1521 H   0  0  0  0  0  0  0  0  0  0  0  0
    4.2592   -1.3289   -1.1336 H   0  0  0  0  0  0  0  0  0  0  0  0
    4.1824   -1.9265    0.5275 H   0  0  0  0  0  0  0  0  0  0  0  0
    2.6946    0.5726   -0.4791 H   0  0  0  0  0  0  0  0  0  0  0  0
    2.6997   -0.0145    1.1737 H   0  0  0  0  0  0  0  0  0  0  0  0
    1.7230   -1.5113   -1.3154 H   0  0  0  0  0  0  0  0  0  0  0  0
    1.6781   -2.1541    0.3471 H   0  0  0  0  0  0  0  0  0  0  0  0
   -0.6853   -2.2669    0.2398 H   0  0  0  0  0  0  0  0  0  0  0  0
   -0.6412   -1.6221   -1.4223 H   0  0  0  0  0  0  0  0  0  0  0  0
   -1.9387    0.3734   -0.6696 H   0  0  0  0  0  0  0  0  0  0  0  0
   -1.9751   -0.2424    0.9646 H   0  0  0  0  0  0  0  0  0  0  0  0
   -3.2427   -2.2819    0.1877 H   0  0  0  0  0  0  0  0  0  0  0  0
   -3.1797   -1.7045   -1.4629 H   0  0  0  0  0  0  0  0  0  0  0  0
   -4.6752   -1.1984    1.8645 H   0  0  0  0  0  0  0  0  0  0  0  0
   -4.5127    0.2187   -2.2002 H   0  0  0  0  0  0  0  0  0  0  0  0
   -6.7301    0.1003    2.2382 H   0  0  0  0  0  0  0  0  0  0  0  0
   -6.5671    1.5195   -1.8322 H   0  0  0  0  0  0  0  0  0  0  0  0
  1 20  1  0  0  0  0
  2 11  1  0  0  0  0
  2 12  1  0  0  0  0
  3  4  1  0  0  0  0
  3  5  1  0  0  0  0
  3  9  1  0  0  0  0
  4  6  1  0  0  0  0
  4 21  1  0  0  0  0
  4 22  1  0  0  0  0
  5  7  1  0  0  0  0
  5 23  1  0  0  0  0
  5 24  1  0  0  0  0
  6  8  1  0  0  0  0
  6 25  1  0  0  0  0
  6 26  1  0  0  0  0
  7  8  1  0  0  0  0
  7 27  1  0  0  0  0
  7 28  1  0  0  0  0
  8 29  1  0  0  0  0
  8 30  1  0  0  0  0
  9 10  1  0  0  0  0
  9 31  1  0  0  0  0
  9 32  1  0  0  0  0
 10 11  1  0  0  0  0
 10 33  1  0  0  0  0
 10 34  1  0  0  0  0
 11 35  1  0  0  0  0
 11 36  1  0  0  0  0
 12 13  1  0  0  0  0
 12 37  1  0  0  0  0
 12 38  1  0  0  0  0
 13 14  1  0  0  0  0
 13 39  1  0  0  0  0
 13 40  1  0  0  0  0
 14 15  1  0  0  0  0
 14 41  1  0  0  0  0
 14 42  1  0  0  0  0
 15 16  2  0  0  0  0
 15 17  1  0  0  0  0
 16 18  1  0  0  0  0
 16 43  1  0  0  0  0
 17 19  2  0  0  0  0
 17 44  1  0  0  0  0
 18 20  2  0  0  0  0
 18 45  1  0  0  0  0
 19 20  1  0  0  0  0
 19 46  1  0  0  0  0
M  END
> <PUBCHEM_COMPOUND_CID>
9948102

> <PUBCHEM_CONFORMER_RMSD>
0.8

> <PUBCHEM_CONFORMER_DIVERSEORDER>
1
96
58
263
90
215
98
120
157
111
236
210
2
11
131
134
188
213
141
123
51
14
245
211
277
34
45
241
231
138
260
59
135
56
8
265
115
42
164
86
176
10
202
132
221
29
229
17
61
151
22
71
293
177
110
70
104
252
255
203
133
26
84
68
266
170
31
129
32
87
35
233
172
122
83
230
243
280
78
214
282
62
117
205
63
272
227
79
53
156
161
292
127
204
113
234
191
6
100
239
18
130
41
246
200
124
99
160
114
207
92
271
249
93
222
5
184
144
3
54
55
183
64
192
281
37
108
276
247
50
198
60
33
256
251
150
258
40
196
28
240
65
275
199
253
270
168
25
181
284
257
103
178
109
223
75
237
259
106
286
216
73
57
52
4
180
95
44
23
224
206
48
16
262
288
220
149
125
89
15
24
43
194
190
254
82
209
250
218
97
146
139
88
39
152
128
283
85
12
291
174
81
158
173
94
287
112
225
208
232
153
76
38
20
7
197
13
145
126
175
182
9
165
171
163
179
285
74
27
49
195
226
185
242
116
189
261
148
105
159
248
66
101
187
30
162
217
212
91
167
269
147
102
80
67
238
19
121
228
47
289
201
267
155
136
219
290
69
244
77
72
235
278
169
193
264
166
279
274
140
186
36
118
273
46
268
119
21
154
142
143
137
107

> <PUBCHEM_MMFF94_PARTIAL_CHARGES>
19
1 -0.18
11 0.28
12 0.28
14 0.14
15 -0.14
16 -0.15
17 -0.15
18 -0.15
19 -0.15
2 -0.56
20 0.18
3 -0.81
4 0.27
43 0.15
44 0.15
45 0.15
46 0.15
5 0.27
9 0.27

> <PUBCHEM_EFFECTIVE_ROTOR_COUNT>
9.2

> <PUBCHEM_PHARMACOPHORE_FEATURES>
4
1 2 acceptor
1 3 cation
6 15 16 17 18 19 20 rings
6 3 4 5 6 7 8 rings

> <PUBCHEM_HEAVY_ATOM_COUNT>
20

> <PUBCHEM_ATOM_DEF_STEREO_COUNT>
0

> <PUBCHEM_ATOM_UDEF_STEREO_COUNT>
0

> <PUBCHEM_BOND_DEF_STEREO_COUNT>
0

> <PUBCHEM_BOND_UDEF_STEREO_COUNT>
0

> <PUBCHEM_ISOTOPIC_ATOM_COUNT>
0

> <PUBCHEM_COMPONENT_COUNT>
1

> <PUBCHEM_CACTVS_TAUTO_COUNT>
1

> <PUBCHEM_CONFORMER_ID>
0097CBC600000001

> <PUBCHEM_MMFF94_ENERGY>
26.6685

> <PUBCHEM_FEATURE_SELFOVERLAP>
20.297

> <PUBCHEM_SHAPE_FINGERPRINT>
10 15 17967816050251661067
10066227 112 18413386548827806768
10066227 49 10447662283482164732
11200772 48 15697993067944788391
11315181 36 16272206401886717011
11524674 6 14707211028390218953
11646440 116 16153707626766006580
12091667 2 18040713680222392287
12166972 35 10737289039200900206
125118 31 18408044005086729300
13167372 99 18409446982155574660
13668630 136 9799699194648973680
13685833 64 7925913681943096278
13862211 1 8070031064341064926
14251757 52 18410292501727432480
14251764 18 18409729594955812031
14251764 46 15213018250003456507
14729087 3 18342737408047677689
14849402 71 15936988443133875774
14933364 13 18187364337573864950
15048467 5 18342175570121780710
15183329 4 17132116844376488322
15348495 7 17168433777950899864
15352257 5 9151172056283162148
15461852 350 17632291307519711919
155225 1 18201439135310352793
15690457 1 10665231462057348241
15716309 27 12107789605629958631
1577012 14 18412258476369359966
16989713 51 17202473589223461855
17093844 174 17022617577432269343
1768 124 11458415835206102816
1818759 1 11746936460651653736
18643901 69 13038893453487045885
20157964 124 18412263922625358878
2026 5 9871756784387530109
20281389 69 18259983760214727222
20526848 3 18342460339559732565
20621476 66 18410575097569489143
20621476 8 18343304747679494574
21150785 3 13614520761978350410
21267235 1 7925908188579834223
22224240 67 17530682121470244043
22288116 15 17059764620636794943
23035841 295 12685093683061606083
23081809 10 18271515477170317958
23559900 14 11095868376921245479
246663 6 11818995171164612074
328310 630 18272940461319284929
33532 11 8862947173600174892
4073 2 18187087299425784050
4340502 62 16950279607729292618
465052 167 7781523620729894058
504843 32 18060135483654488559
5758199 1 17676488345428471595
59682541 35 17822017514901766953
59682541 52 16702032937609194974
59755656 215 13470694737076465212
636775 72 18336828573286107445
636775 8 15266767915652884565
68570916 9 17096660978994685710
9953998 17 17313390028841384019
999808 66 10663816416921354437

> <PUBCHEM_SHAPE_MULTIPOLES>
402.61
29.26
1.68
0.96
10.1
0.54
0.02
15.53
3.84
0.54
-0.08
-1.37
0.05
-0.4

> <PUBCHEM_SHAPE_SELFOVERLAP>
798.596

> <PUBCHEM_SHAPE_VOLUME>
239.8

> <PUBCHEM_COORDINATE_TYPE>
2
5
10

$$$$
