44599207
  -OEChem-01082001523D

 72 75  0     0  0  0  0  0  0999 V2000
   -4.5778    3.2265    0.0986 F   0  0  0  0  0  0  0  0  0  0  0  0
   -6.0668    2.4456   -1.2801 F   0  0  0  0  0  0  0  0  0  0  0  0
   -6.5615    2.6992    0.8162 F   0  0  0  0  0  0  0  0  0  0  0  0
   10.7925    2.1381   -1.2437 O   0  0  0  0  0  0  0  0  0  0  0  0
    9.0557    2.5582    0.1478 O   0  0  0  0  0  0  0  0  0  0  0  0
   -1.0243   -0.6476    0.0642 O   0  0  0  0  0  0  0  0  0  0  0  0
    7.5270   -0.3267    0.1425 N   0  0  0  0  0  0  0  0  0  0  0  0
    0.3100   -0.8443    0.4378 N   0  0  0  0  0  0  0  0  0  0  0  0
   -7.4017   -0.0026   -0.1793 C   0  0  0  0  0  0  0  0  0  0  0  0
   -8.3378   -0.4350    0.9627 C   0  0  0  0  0  0  0  0  0  0  0  0
   -7.7584   -0.7287   -1.4884 C   0  0  0  0  0  0  0  0  0  0  0  0
    9.2669    0.3096   -0.8533 C   0  0  0  0  0  0  0  0  0  0  0  0
   -9.8055   -0.2382    0.5867 C   0  0  0  0  0  0  0  0  0  0  0  0
   -9.2284   -0.5304   -1.8543 C   0  0  0  0  0  0  0  0  0  0  0  0
  -10.1536   -0.9515   -0.7164 C   0  0  0  0  0  0  0  0  0  0  0  0
    8.9696   -0.6125    0.3375 C   0  0  0  0  0  0  0  0  0  0  0  0
    7.8240   -0.0026   -1.2743 C   0  0  0  0  0  0  0  0  0  0  0  0
   -5.9406   -0.1853    0.1888 C   0  0  0  0  0  0  0  0  0  0  0  0
    6.7629   -1.5723    0.2143 C   0  0  0  0  0  0  0  0  0  0  0  0
   -5.0770    0.9076    0.2617 C   0  0  0  0  0  0  0  0  0  0  0  0
    9.6608    1.7737   -0.5791 C   0  0  0  0  0  0  0  0  0  0  0  0
    5.2981   -1.3503    0.0248 C   0  0  0  0  0  0  0  0  0  0  0  0
   -5.4648   -1.4693    0.4550 C   0  0  0  0  0  0  0  0  0  0  0  0
    4.5134   -0.8238    1.0508 C   0  0  0  0  0  0  0  0  0  0  0  0
   -3.7374    0.7167    0.6009 C   0  0  0  0  0  0  0  0  0  0  0  0
   -4.1253   -1.6601    0.7941 C   0  0  0  0  0  0  0  0  0  0  0  0
   -3.2615   -0.5672    0.8672 C   0  0  0  0  0  0  0  0  0  0  0  0
   -5.5635    2.2911   -0.0207 C   0  0  0  0  0  0  0  0  0  0  0  0
    4.7163   -1.6786   -1.1997 C   0  0  0  0  0  0  0  0  0  0  0  0
    5.1137   -0.4655    2.3708 C   0  0  0  0  0  0  0  0  0  0  0  0
    3.1470   -0.6257    0.8523 C   0  0  0  0  0  0  0  0  0  0  0  0
    2.5652   -0.9542   -0.3721 C   0  0  0  0  0  0  0  0  0  0  0  0
    3.3498   -1.4808   -1.3981 C   0  0  0  0  0  0  0  0  0  0  0  0
   -1.8296   -0.7718    1.2300 C   0  0  0  0  0  0  0  0  0  0  0  0
    5.3119    1.0391    2.5268 C   0  0  0  0  0  0  0  0  0  0  0  0
    1.1071   -0.7445   -0.5843 C   0  0  0  0  0  0  0  0  0  0  0  0
    0.6236   -0.4361   -1.9877 C   0  0  0  0  0  0  0  0  0  0  0  0
   -7.6256    1.0522   -0.3585 H   0  0  0  0  0  0  0  0  0  0  0  0
   -8.1162    0.1427    1.8689 H   0  0  0  0  0  0  0  0  0  0  0  0
   -8.1809   -1.4902    1.2188 H   0  0  0  0  0  0  0  0  0  0  0  0
   -7.1289   -0.3577   -2.3069 H   0  0  0  0  0  0  0  0  0  0  0  0
   -7.5607   -1.8046   -1.4052 H   0  0  0  0  0  0  0  0  0  0  0  0
    9.9925   -0.1486   -1.5418 H   0  0  0  0  0  0  0  0  0  0  0  0
  -10.4453   -0.6125    1.3938 H   0  0  0  0  0  0  0  0  0  0  0  0
  -10.0157    0.8335    0.4842 H   0  0  0  0  0  0  0  0  0  0  0  0
   -9.4052    0.5245   -2.0978 H   0  0  0  0  0  0  0  0  0  0  0  0
   -9.4647   -1.1089   -2.7545 H   0  0  0  0  0  0  0  0  0  0  0  0
    9.2854   -1.6518    0.1759 H   0  0  0  0  0  0  0  0  0  0  0  0
    9.3644   -0.2807    1.3030 H   0  0  0  0  0  0  0  0  0  0  0  0
    7.7557   -0.8243   -1.9993 H   0  0  0  0  0  0  0  0  0  0  0  0
    7.2545    0.8460   -1.6674 H   0  0  0  0  0  0  0  0  0  0  0  0
  -11.1932   -0.7360   -0.9879 H   0  0  0  0  0  0  0  0  0  0  0  0
  -10.0799   -2.0361   -0.5691 H   0  0  0  0  0  0  0  0  0  0  0  0
    7.1164   -2.3127   -0.5197 H   0  0  0  0  0  0  0  0  0  0  0  0
    6.9418   -2.0799    1.1700 H   0  0  0  0  0  0  0  0  0  0  0  0
   -6.1169   -2.3365    0.4043 H   0  0  0  0  0  0  0  0  0  0  0  0
   -3.0543    1.5604    0.6601 H   0  0  0  0  0  0  0  0  0  0  0  0
   -3.7680   -2.6662    0.9969 H   0  0  0  0  0  0  0  0  0  0  0  0
    5.3124   -2.0935   -2.0082 H   0  0  0  0  0  0  0  0  0  0  0  0
    6.0536   -0.9754    2.5896 H   0  0  0  0  0  0  0  0  0  0  0  0
    4.4351   -0.8096    3.1635 H   0  0  0  0  0  0  0  0  0  0  0  0
    2.5439   -0.2087    1.6556 H   0  0  0  0  0  0  0  0  0  0  0  0
   11.0364    3.0710   -1.0634 H   0  0  0  0  0  0  0  0  0  0  0  0
    2.9227   -1.7684   -2.3545 H   0  0  0  0  0  0  0  0  0  0  0  0
   -1.6768   -1.7630    1.6752 H   0  0  0  0  0  0  0  0  0  0  0  0
   -1.5244   -0.0251    1.9743 H   0  0  0  0  0  0  0  0  0  0  0  0
    4.3610    1.5778    2.4544 H   0  0  0  0  0  0  0  0  0  0  0  0
    5.7479    1.2613    3.5062 H   0  0  0  0  0  0  0  0  0  0  0  0
    5.9813    1.4394    1.7592 H   0  0  0  0  0  0  0  0  0  0  0  0
    1.4308   -0.0770   -2.6308 H   0  0  0  0  0  0  0  0  0  0  0  0
   -0.1316    0.3554   -1.9614 H   0  0  0  0  0  0  0  0  0  0  0  0
    0.1841   -1.3376   -2.4237 H   0  0  0  0  0  0  0  0  0  0  0  0
  1 28  1  0  0  0  0
  2 28  1  0  0  0  0
  3 28  1  0  0  0  0
  4 21  1  0  0  0  0
  4 63  1  0  0  0  0
  5 21  2  0  0  0  0
  6  8  1  0  0  0  0
  6 34  1  0  0  0  0
  7 16  1  0  0  0  0
  7 17  1  0  0  0  0
  7 19  1  0  0  0  0
  8 36  2  0  0  0  0
  9 10  1  0  0  0  0
  9 11  1  0  0  0  0
  9 18  1  0  0  0  0
  9 38  1  0  0  0  0
 10 13  1  0  0  0  0
 10 39  1  0  0  0  0
 10 40  1  0  0  0  0
 11 14  1  0  0  0  0
 11 41  1  0  0  0  0
 11 42  1  0  0  0  0
 12 16  1  0  0  0  0
 12 17  1  0  0  0  0
 12 21  1  0  0  0  0
 12 43  1  0  0  0  0
 13 15  1  0  0  0  0
 13 44  1  0  0  0  0
 13 45  1  0  0  0  0
 14 15  1  0  0  0  0
 14 46  1  0  0  0  0
 14 47  1  0  0  0  0
 15 52  1  0  0  0  0
 15 53  1  0  0  0  0
 16 48  1  0  0  0  0
 16 49  1  0  0  0  0
 17 50  1  0  0  0  0
 17 51  1  0  0  0  0
 18 20  2  0  0  0  0
 18 23  1  0  0  0  0
 19 22  1  0  0  0  0
 19 54  1  0  0  0  0
 19 55  1  0  0  0  0
 20 25  1  0  0  0  0
 20 28  1  0  0  0  0
 22 24  2  0  0  0  0
 22 29  1  0  0  0  0
 23 26  2  0  0  0  0
 23 56  1  0  0  0  0
 24 30  1  0  0  0  0
 24 31  1  0  0  0  0
 25 27  2  0  0  0  0
 25 57  1  0  0  0  0
 26 27  1  0  0  0  0
 26 58  1  0  0  0  0
 27 34  1  0  0  0  0
 29 33  2  0  0  0  0
 29 59  1  0  0  0  0
 30 35  1  0  0  0  0
 30 60  1  0  0  0  0
 30 61  1  0  0  0  0
 31 32  2  0  0  0  0
 31 62  1  0  0  0  0
 32 33  1  0  0  0  0
 32 36  1  0  0  0  0
 33 64  1  0  0  0  0
 34 65  1  0  0  0  0
 34 66  1  0  0  0  0
 35 67  1  0  0  0  0
 35 68  1  0  0  0  0
 35 69  1  0  0  0  0
 36 37  1  0  0  0  0
 37 70  1  0  0  0  0
 37 71  1  0  0  0  0
 37 72  1  0  0  0  0
M  END
> <PUBCHEM_COMPOUND_CID>
44599207

> <PUBCHEM_CONFORMER_RMSD>
1.2

> <PUBCHEM_CONFORMER_DIVERSEORDER>
2
77
32
38
97
31
51
56
93
86
92
100
28
98
89
30
87
78
49
11
23
106
73
39
47
108
63
46
55
76
66
57
42
53
95
1
29
52
79
96
40
69
26
83
20
67
58
62
50
84
48
17
6
54
102
85
91
70
72
35
68
81
101
33
88
36
25
19
5
74
45
43
14
15
44
7
107
64
21
61
82
65
8
10
105
3
75
80
59
27
37
41
13
103
90
104
94
9
71
99
60
18
34
24
22
16
12
4

> <PUBCHEM_MMFF94_PARTIAL_CHARGES>
38
1 -0.34
12 0.05
16 0.21
17 0.21
18 -0.14
19 0.41
2 -0.34
20 -0.14
21 0.67
22 -0.14
23 -0.15
24 -0.14
25 -0.15
26 -0.15
27 -0.14
28 1.16
29 -0.15
3 -0.34
30 0.14
31 -0.15
32 0.09
33 -0.15
34 0.42
36 0.3
37 0.06
4 -0.65
5 -0.57
56 0.15
57 0.15
58 0.15
59 0.15
6 -0.22
62 0.15
63 0.5
64 0.15
7 -0.69
8 -0.51
9 0.14

> <PUBCHEM_EFFECTIVE_ROTOR_COUNT>
12

> <PUBCHEM_PHARMACOPHORE_FEATURES>
10
1 35 hydrophobe
1 4 acceptor
1 5 acceptor
1 7 cation
1 8 acceptor
3 4 5 21 anion
4 7 12 16 17 rings
6 18 20 23 25 26 27 rings
6 22 24 29 31 32 33 rings
6 9 10 11 13 14 15 rings

> <PUBCHEM_HEAVY_ATOM_COUNT>
37

> <PUBCHEM_ATOM_DEF_STEREO_COUNT>
0

> <PUBCHEM_ATOM_UDEF_STEREO_COUNT>
0

> <PUBCHEM_BOND_DEF_STEREO_COUNT>
1

> <PUBCHEM_BOND_UDEF_STEREO_COUNT>
0

> <PUBCHEM_ISOTOPIC_ATOM_COUNT>
0

> <PUBCHEM_COMPONENT_COUNT>
1

> <PUBCHEM_CACTVS_TAUTO_COUNT>
1

> <PUBCHEM_CONFORMER_ID>
02A887A700000002

> <PUBCHEM_MMFF94_ENERGY>
90.4251

> <PUBCHEM_FEATURE_SELFOVERLAP>
50.806

> <PUBCHEM_SHAPE_FINGERPRINT>
10076449 9 17846498124098558075
10625338 86 18411700971753825432
10674148 151 8790880783632482871
10677351 14 18060135478836637539
11146851 88 18202282519934751987
11315181 36 18041000635851406603
12089408 11 18335421227437949851
12643181 29 8142078767934324041
12664476 115 18202563977462685489
12838862 33 16225760835162601810
14118638 360 18262233306162859307
14344974 52 18114183081650330251
14359421 15 11455354791457818516
15064986 266 15840999854453896163
15065858 18 17312819372973432603
15183329 4 16443069365849225459
15419008 47 18130782335648961273
15461852 350 17988922271427310791
15554971 5 18410012092477669506
1577012 14 17896319122025119267
15840311 113 16773792637163075920
17686467 74 18260269663830760245
1818759 1 14117800219381345118
20105231 36 11600001081686241165
2026 5 11311514463760513692
20501277 279 16950563312226202188
21792934 111 15791731923613549502
232437 2 14045740426816248055
24771293 8 17894355493010601742
335507 130 18131348609695533485
439807 62 8574714598804814398
44280117 145 18060699495286692023
44389302 135 8286209319325300756
44880568 143 18057614165572580004
45377200 153 14548729642502164527
4625314 4 16558745741607469679
4874694 18 17313105258744614762
58083652 198 14996295712175856663
6126387 218 15864066572806049095
6691757 9 18113909247721152931
67123 10 18409731763645420362

> <PUBCHEM_SHAPE_MULTIPOLES>
712.05
41.28
2.19
1.7
10.53
1.99
0.21
10.63
-9.44
0.22
-0.27
1.19
-0.02
-0.55

> <PUBCHEM_SHAPE_SELFOVERLAP>
1508.387

> <PUBCHEM_SHAPE_VOLUME>
402

> <PUBCHEM_COORDINATE_TYPE>
2
5
10

$$$$
