11001318
  -OEChem-01082001533D

 27 29  0     0  0  0  0  0  0999 V2000
   -5.5248   -2.1540   -0.0005 Cl  0  0  0  0  0  0  0  0  0  0  0  0
   -4.4382    3.1325   -0.0016 Cl  0  0  0  0  0  0  0  0  0  0  0  0
    0.1391    0.6962    0.0020 O   0  0  0  0  0  0  0  0  0  0  0  0
    4.9808    2.0316   -0.0003 O   0  0  0  0  0  0  0  0  0  0  0  0
    6.1438    0.0788   -0.0007 O   0  0  0  0  0  0  0  0  0  0  0  0
   -0.0663   -1.5609    0.0004 N   0  0  0  0  0  0  0  0  0  0  0  0
    1.3947    0.1594    0.0011 C   0  0  0  0  0  0  0  0  0  0  0  0
    1.2649   -1.2216    0.0000 C   0  0  0  0  0  0  0  0  0  0  0  0
   -0.6757   -0.3958    0.0015 C   0  0  0  0  0  0  0  0  0  0  0  0
   -2.0830   -0.1067    0.0007 C   0  0  0  0  0  0  0  0  0  0  0  0
    2.6054    0.8409    0.0008 C   0  0  0  0  0  0  0  0  0  0  0  0
    2.4239   -2.0111   -0.0011 C   0  0  0  0  0  0  0  0  0  0  0  0
    3.7517    0.0388   -0.0003 C   0  0  0  0  0  0  0  0  0  0  0  0
    3.6653   -1.3589   -0.0013 C   0  0  0  0  0  0  0  0  0  0  0  0
   -2.5289    1.2181    0.0003 C   0  0  0  0  0  0  0  0  0  0  0  0
   -3.0155   -1.1483    0.0002 C   0  0  0  0  0  0  0  0  0  0  0  0
   -4.3818   -0.8675   -0.0003 C   0  0  0  0  0  0  0  0  0  0  0  0
   -3.8952    1.4991   -0.0002 C   0  0  0  0  0  0  0  0  0  0  0  0
   -4.8218    0.4562   -0.0005 C   0  0  0  0  0  0  0  0  0  0  0  0
    5.0615    0.6731   -0.0001 C   0  0  0  0  0  0  0  0  0  0  0  0
    2.6204    1.9237    0.0017 H   0  0  0  0  0  0  0  0  0  0  0  0
    2.3685   -3.0946   -0.0018 H   0  0  0  0  0  0  0  0  0  0  0  0
    4.5653   -1.9702   -0.0020 H   0  0  0  0  0  0  0  0  0  0  0  0
   -1.8271    2.0495    0.0004 H   0  0  0  0  0  0  0  0  0  0  0  0
   -2.6818   -2.1843    0.0005 H   0  0  0  0  0  0  0  0  0  0  0  0
   -5.8874    0.6754   -0.0011 H   0  0  0  0  0  0  0  0  0  0  0  0
    5.8680    2.4500   -0.0008 H   0  0  0  0  0  0  0  0  0  0  0  0
  1 17  1  0  0  0  0
  2 18  1  0  0  0  0
  3  7  1  0  0  0  0
  3  9  1  0  0  0  0
  4 20  1  0  0  0  0
  4 27  1  0  0  0  0
  5 20  2  0  0  0  0
  6  8  1  0  0  0  0
  6  9  2  0  0  0  0
  7  8  2  0  0  0  0
  7 11  1  0  0  0  0
  8 12  1  0  0  0  0
  9 10  1  0  0  0  0
 10 15  2  0  0  0  0
 10 16  1  0  0  0  0
 11 13  2  0  0  0  0
 11 21  1  0  0  0  0
 12 14  2  0  0  0  0
 12 22  1  0  0  0  0
 13 14  1  0  0  0  0
 13 20  1  0  0  0  0
 14 23  1  0  0  0  0
 15 18  1  0  0  0  0
 15 24  1  0  0  0  0
 16 17  2  0  0  0  0
 16 25  1  0  0  0  0
 17 19  1  0  0  0  0
 18 19  2  0  0  0  0
 19 26  1  0  0  0  0
M  END
> <PUBCHEM_COMPOUND_CID>
11001318

> <PUBCHEM_CONFORMER_RMSD>
0.6

> <PUBCHEM_CONFORMER_DIVERSEORDER>
1

> <PUBCHEM_MMFF94_PARTIAL_CHARGES>
27
1 -0.18
10 0.05
11 -0.15
12 -0.15
13 0.09
14 -0.15
15 -0.15
16 -0.15
17 0.18
18 0.18
19 -0.15
2 -0.18
20 0.63
21 0.15
22 0.15
23 0.15
24 0.15
25 0.15
26 0.15
27 0.5
3 -0.28
4 -0.65
5 -0.57
6 -0.57
7 0.14
8 0.23
9 0.43

> <PUBCHEM_EFFECTIVE_ROTOR_COUNT>
2

> <PUBCHEM_PHARMACOPHORE_FEATURES>
6
1 4 acceptor
1 5 acceptor
3 4 5 20 anion
5 3 6 7 8 9 rings
6 10 15 16 17 18 19 rings
6 7 8 11 12 13 14 rings

> <PUBCHEM_HEAVY_ATOM_COUNT>
20

> <PUBCHEM_ATOM_DEF_STEREO_COUNT>
0

> <PUBCHEM_ATOM_UDEF_STEREO_COUNT>
0

> <PUBCHEM_BOND_DEF_STEREO_COUNT>
0

> <PUBCHEM_BOND_UDEF_STEREO_COUNT>
0

> <PUBCHEM_ISOTOPIC_ATOM_COUNT>
0

> <PUBCHEM_COMPONENT_COUNT>
1

> <PUBCHEM_CACTVS_TAUTO_COUNT>
1

> <PUBCHEM_CONFORMER_ID>
00A7DDE600000001

> <PUBCHEM_MMFF94_ENERGY>
45.0688

> <PUBCHEM_FEATURE_SELFOVERLAP>
30.622

> <PUBCHEM_SHAPE_FINGERPRINT>
10014705 185 18262516992709896085
10595046 47 18408885156766088655
10912923 1 17967809436028288952
11315181 36 17676209112450653547
11405975 8 18264768753446804835
12107183 9 17759799252156128267
12236239 1 18186517717910176426
12390115 104 18271540701660686937
12403259 118 18410845551907758928
12403259 415 18060131067936717696
12916748 109 18411423933462455206
13073987 5 18335419049694384394
13167823 11 18410571764864862387
13631057 29 18342454902643378011
13785724 45 17761488085465192698
14341114 176 18410582751712471787
14528608 73 18411139160404334228
14790565 3 18337396036558683724
15196674 1 18410856525296037862
15778101 99 18341336583121632793
17492 89 18339361868749460495
17834072 33 18412543223530693350
17844677 252 18411708672566747109
200 152 18201718470564817443
20645477 70 18201160945266244358
21033648 29 17917134061653438464
21065198 48 18334289834231005787
21065198 57 18266741286034080295
21236236 1 18411699885765175505
21267235 1 18411144661761983767
21279426 13 18269841917625223198
21315763 129 18410291419675443228
21421861 104 17606110681115151226
21618674 54 18410573942608258911
21709351 56 18335697256243083660
23272321 79 18409450318680505900
23402539 116 18334008415289128623
23402655 69 18343016653572416876
23557571 272 18272094902364526861
23559900 14 18054505803209012190
245318 6 17026860759865425836
2916195 48 18272081743065072328
300161 21 18261387819784447981
34797466 226 17846505850001113460
350125 39 18412546548305034817
3545911 37 18411702067123382137
4073 2 18113626685500563474
4214541 1 18410855421948346209
4325135 7 18411981394732684567
441001 317 18410573972678272297
474 4 17894917360125939780
474229 33 18411982502676250935
5104073 3 18335702693703192779
542803 24 18411418401502198040
6327066 14 18118678813230502509
633830 44 18338511932937977039
7495541 125 17703505600970020354
77779 3 18411138000510125367
90127 26 18336277755432869586
9709674 26 18410018719343662339

> <PUBCHEM_SHAPE_MULTIPOLES>
392.74
13.49
2.47
0.6
4.57
0.87
0
2.35
-0.01
-2.72
0
-0.08
-0.01
0

> <PUBCHEM_SHAPE_SELFOVERLAP>
859.549

> <PUBCHEM_SHAPE_VOLUME>
216.3

> <PUBCHEM_COORDINATE_TYPE>
2
5
10

$$$$
