50248
  -OEChem-01082001553D

 30 32  0     0  0  0  0  0  0999 V2000
   -0.2074    3.8201    0.1743 Cl  0  0  0  0  0  0  0  0  0  0  0  0
   -2.9433   -0.8973    2.3462 Cl  0  0  0  0  0  0  0  0  0  0  0  0
   -4.9437   -2.5557    0.4467 Cl  0  0  0  0  0  0  0  0  0  0  0  0
    5.4101   -1.5906   -0.4271 S   0  0  0  0  0  0  0  0  0  0  0  0
   -1.4171    1.1727    0.8689 O   0  0  0  0  0  0  0  0  0  0  0  0
    3.8661    0.6108   -0.3675 N   0  0  0  0  0  0  0  0  0  0  0  0
    2.7724   -1.2447    0.1805 N   0  0  0  0  0  0  0  0  0  0  0  0
    2.5801    1.0079   -0.1051 C   0  0  0  0  0  0  0  0  0  0  0  0
    1.9173   -0.1681    0.2347 C   0  0  0  0  0  0  0  0  0  0  0  0
   -0.0913    1.1294    0.5442 C   0  0  0  0  0  0  0  0  0  0  0  0
    0.5533   -0.1138    0.5673 C   0  0  0  0  0  0  0  0  0  0  0  0
    1.9586    2.2568   -0.1349 C   0  0  0  0  0  0  0  0  0  0  0  0
    0.6008    2.2924    0.1988 C   0  0  0  0  0  0  0  0  0  0  0  0
    3.9309   -0.7423   -0.1833 C   0  0  0  0  0  0  0  0  0  0  0  0
   -2.2901    0.4352    0.0906 C   0  0  0  0  0  0  0  0  0  0  0  0
   -3.0673   -0.5660    0.6487 C   0  0  0  0  0  0  0  0  0  0  0  0
   -2.3588    0.7333   -1.2612 C   0  0  0  0  0  0  0  0  0  0  0  0
   -3.9374   -1.2898   -0.1665 C   0  0  0  0  0  0  0  0  0  0  0  0
   -3.2289    0.0094   -2.0762 C   0  0  0  0  0  0  0  0  0  0  0  0
   -4.0182   -1.0022   -1.5289 C   0  0  0  0  0  0  0  0  0  0  0  0
    4.9141   -3.2975   -0.0501 C   0  0  0  0  0  0  0  0  0  0  0  0
    0.0297   -1.0232    0.8441 H   0  0  0  0  0  0  0  0  0  0  0  0
    2.5105    3.1509   -0.4054 H   0  0  0  0  0  0  0  0  0  0  0  0
    4.6306    1.2107   -0.6473 H   0  0  0  0  0  0  0  0  0  0  0  0
   -1.7611    1.5246   -1.7033 H   0  0  0  0  0  0  0  0  0  0  0  0
   -3.2938    0.2351   -3.1366 H   0  0  0  0  0  0  0  0  0  0  0  0
   -4.6911   -1.5556   -2.1792 H   0  0  0  0  0  0  0  0  0  0  0  0
    4.1279   -3.6269   -0.7350 H   0  0  0  0  0  0  0  0  0  0  0  0
    4.5564   -3.3726    0.9805 H   0  0  0  0  0  0  0  0  0  0  0  0
    5.7786   -3.9560   -0.1685 H   0  0  0  0  0  0  0  0  0  0  0  0
  1 13  1  0  0  0  0
  2 16  1  0  0  0  0
  3 18  1  0  0  0  0
  4 14  1  0  0  0  0
  4 21  1  0  0  0  0
  5 10  1  0  0  0  0
  5 15  1  0  0  0  0
  6  8  1  0  0  0  0
  6 14  1  0  0  0  0
  6 24  1  0  0  0  0
  7  9  1  0  0  0  0
  7 14  2  0  0  0  0
  8  9  1  0  0  0  0
  8 12  2  0  0  0  0
  9 11  2  0  0  0  0
 10 11  1  0  0  0  0
 10 13  2  0  0  0  0
 11 22  1  0  0  0  0
 12 13  1  0  0  0  0
 12 23  1  0  0  0  0
 15 16  2  0  0  0  0
 15 17  1  0  0  0  0
 16 18  1  0  0  0  0
 17 19  2  0  0  0  0
 17 25  1  0  0  0  0
 18 20  2  0  0  0  0
 19 20  1  0  0  0  0
 19 26  1  0  0  0  0
 20 27  1  0  0  0  0
 21 28  1  0  0  0  0
 21 29  1  0  0  0  0
 21 30  1  0  0  0  0
M  END
> <PUBCHEM_COMPOUND_CID>
50248

> <PUBCHEM_CONFORMER_RMSD>
0.6

> <PUBCHEM_CONFORMER_DIVERSEORDER>
1
40
41
23
19
28
5
42
27
39
18
36
26
6
20
24
17
34
31
29
8
9
10
38
37
32
11
13
14
35
30
12
22
25
7
33
4
2
16
21
3
15

> <PUBCHEM_MMFF94_PARTIAL_CHARGES>
27
1 -0.18
10 0.08
11 -0.15
12 -0.15
13 0.18
14 0.24
15 0.08
16 0.18
17 -0.15
18 0.18
19 -0.15
2 -0.18
20 -0.15
21 0.23
22 0.15
23 0.15
24 0.27
25 0.15
26 0.15
27 0.15
3 -0.18
4 -0.29
5 -0.17
6 0.03
7 -0.57
8 -0.15
9 0.23

> <PUBCHEM_EFFECTIVE_ROTOR_COUNT>
3

> <PUBCHEM_PHARMACOPHORE_FEATURES>
7
1 21 hydrophobe
1 5 acceptor
1 6 donor
3 6 7 14 cation
5 6 7 8 9 14 rings
6 15 16 17 18 19 20 rings
6 8 9 10 11 12 13 rings

> <PUBCHEM_HEAVY_ATOM_COUNT>
21

> <PUBCHEM_ATOM_DEF_STEREO_COUNT>
0

> <PUBCHEM_ATOM_UDEF_STEREO_COUNT>
0

> <PUBCHEM_BOND_DEF_STEREO_COUNT>
0

> <PUBCHEM_BOND_UDEF_STEREO_COUNT>
0

> <PUBCHEM_ISOTOPIC_ATOM_COUNT>
0

> <PUBCHEM_COMPONENT_COUNT>
1

> <PUBCHEM_CACTVS_TAUTO_COUNT>
2

> <PUBCHEM_CONFORMER_ID>
0000C44800000001

> <PUBCHEM_MMFF94_ENERGY>
51.6587

> <PUBCHEM_FEATURE_SELFOVERLAP>
35.627

> <PUBCHEM_SHAPE_FINGERPRINT>
10254770 206 16029010548197884642
10498660 4 16154247504176096069
12107183 9 18270979968384774425
12363563 72 18411418405908000164
12403259 118 12031774881843886218
12422481 6 16987447408183620526
12553582 1 18336262340768740826
12623949 98 17832449831186996659
12788726 201 18049994494120600945
12892183 10 13758354458008273132
13009979 54 17845950583738923096
13544653 18 18411140225435079468
13911987 19 17757010152319725204
13955234 65 17910958272739713945
13994607 96 12468651477839307007
14341114 328 14764340583027832250
14576447 43 18412547630678725174
14767858 380 18336282218958782684
14848178 96 10953752118349126542
14866123 147 18124317099686859201
15475509 8 17531238488282954855
1813 80 18130804368245405908
18186145 218 17603303760567184880
18927931 339 18196381325328475790
193927 3 18130794438581632926
19784866 240 18131348635576178359
200 152 18341894103734803328
20645477 70 18263078975731037072
20671657 53 18412826914642099869
20693207 138 17968936517336078359
21033650 10 16805597015159435892
21713013 43 17968087647062093183
21731228 192 9799688233523682429
221357 26 18261385668100953823
221490 88 18263646323699294906
22393880 68 17894619340655883302
23402539 116 18340206285220630234
23526113 38 18114463473625252944
23557571 272 17242159374552902565
23559900 14 18260819419121960617
23598288 3 17916882230863095721
2838139 119 14129058102122518646
314194 84 18272367620119452046
46194498 28 17532090681769480901
4921388 177 16877948247948380171
5104073 3 18131350778706765842
621550 5 17314818349800911761
636775 72 8643618785311892614
6431902 208 18339080368319320870
6669772 16 17907871952671003532
7970288 3 18412827984121267718
9709674 26 18116149068385453395

> <PUBCHEM_SHAPE_MULTIPOLES>
425.8
10.58
3.38
1.42
5.29
1.28
0
-11.43
-1.78
1.92
0.3
-2.2
-0.29
0.56

> <PUBCHEM_SHAPE_SELFOVERLAP>
894.884

> <PUBCHEM_SHAPE_VOLUME>
246.5

> <PUBCHEM_COORDINATE_TYPE>
2
5
10

$$$$
