68748835
  -OEChem-01082001583D

 66 71  0     1  0  0  0  0  0999 V2000
   -5.4121    5.0039    0.5459 F   0  0  0  0  0  0  0  0  0  0  0  0
   -4.2143    4.0099   -0.9812 F   0  0  0  0  0  0  0  0  0  0  0  0
   -6.1579    3.1907   -0.4080 F   0  0  0  0  0  0  0  0  0  0  0  0
    5.6055    1.2962   -2.1464 O   0  0  0  0  0  0  0  0  0  0  0  0
   -1.8886    2.4312   -0.0022 O   0  0  0  0  0  0  0  0  0  0  0  0
   -0.8699   -0.9957   -2.7395 O   0  0  0  0  0  0  0  0  0  0  0  0
   -3.9793    1.6630    0.6399 N   0  0  0  0  0  0  0  0  0  0  0  0
    7.3716    1.2514   -0.6063 N   0  0  0  0  0  0  0  0  0  0  0  0
   -1.0396   -0.0523   -0.6279 N   0  0  0  0  0  0  0  0  0  0  0  0
    3.0914   -2.1415   -2.0047 N   0  0  0  0  0  0  0  0  0  0  0  0
    8.7702    0.7416    1.3174 N   0  0  0  0  0  0  0  0  0  0  0  0
    5.4992   -0.1268   -0.1189 C   0  0  2  0  0  0  0  0  0  0  0  0
   -4.7133   -0.6312   -0.0046 C   0  0  1  0  0  0  0  0  0  0  0  0
    4.1554    0.4105    0.4301 C   0  0  0  0  0  0  0  0  0  0  0  0
    5.2092   -1.4668   -0.8339 C   0  0  0  0  0  0  0  0  0  0  0  0
   -4.8299    0.5169    1.0238 C   0  0  1  0  0  0  0  0  0  0  0  0
   -3.2369   -1.0048   -0.1647 C   0  0  0  0  0  0  0  0  0  0  0  0
   -2.4578    0.1993   -0.6707 C   0  0  1  0  0  0  0  0  0  0  0  0
    3.1686   -0.2856   -0.4487 C   0  0  0  0  0  0  0  0  0  0  0  0
    6.5792   -0.2217    0.9216 C   0  0  0  0  0  0  0  0  0  0  0  0
    3.7475   -1.3296   -1.1583 C   0  0  0  0  0  0  0  0  0  0  0  0
    6.1214    0.8920   -1.1149 C   0  0  0  0  0  0  0  0  0  0  0  0
   -2.7177    1.5178    0.0553 C   0  0  0  0  0  0  0  0  0  0  0  0
   -5.6553   -1.7888    0.2871 C   0  0  0  0  0  0  0  0  0  0  0  0
    7.6486    0.5996    0.5931 C   0  0  0  0  0  0  0  0  0  0  0  0
   -4.5110    0.0925    2.4659 C   0  0  0  0  0  0  0  0  0  0  0  0
    1.8180   -0.0398   -0.5997 C   0  0  0  0  0  0  0  0  0  0  0  0
   -4.3827    2.9748    1.1363 C   0  0  0  0  0  0  0  0  0  0  0  0
    1.0980   -0.8515   -1.4726 C   0  0  0  0  0  0  0  0  0  0  0  0
    6.6452   -0.9671    2.0833 C   0  0  0  0  0  0  0  0  0  0  0  0
   -0.3247   -0.6416   -1.6781 C   0  0  0  0  0  0  0  0  0  0  0  0
    1.7708   -1.8731   -2.1417 C   0  0  0  0  0  0  0  0  0  0  0  0
   -6.9801   -1.7366   -0.1464 C   0  0  0  0  0  0  0  0  0  0  0  0
   -5.1944   -2.9029    0.9883 C   0  0  0  0  0  0  0  0  0  0  0  0
   -5.0463    3.7968    0.0605 C   0  0  0  0  0  0  0  0  0  0  0  0
    7.7891   -0.8549    2.8704 C   0  0  0  0  0  0  0  0  0  0  0  0
    8.8080    0.0001    2.4503 C   0  0  0  0  0  0  0  0  0  0  0  0
   -7.8440   -2.7985    0.1214 C   0  0  0  0  0  0  0  0  0  0  0  0
   -6.0582   -3.9649    1.2561 C   0  0  0  0  0  0  0  0  0  0  0  0
   -7.3830   -3.9126    0.8227 C   0  0  0  0  0  0  0  0  0  0  0  0
   -5.0286   -0.2301   -0.9810 H   0  0  0  0  0  0  0  0  0  0  0  0
    4.0708    1.4985    0.3379 H   0  0  0  0  0  0  0  0  0  0  0  0
    3.9806    0.1190    1.4715 H   0  0  0  0  0  0  0  0  0  0  0  0
    5.3470   -2.3337   -0.1787 H   0  0  0  0  0  0  0  0  0  0  0  0
    5.8008   -1.6016   -1.7451 H   0  0  0  0  0  0  0  0  0  0  0  0
   -5.8678    0.8765    1.0039 H   0  0  0  0  0  0  0  0  0  0  0  0
   -2.8006   -1.3556    0.7779 H   0  0  0  0  0  0  0  0  0  0  0  0
   -3.1278   -1.8347   -0.8755 H   0  0  0  0  0  0  0  0  0  0  0  0
   -2.7416    0.3787   -1.7164 H   0  0  0  0  0  0  0  0  0  0  0  0
   -3.4744   -0.2394    2.5779 H   0  0  0  0  0  0  0  0  0  0  0  0
   -5.1726   -0.7075    2.8092 H   0  0  0  0  0  0  0  0  0  0  0  0
   -4.6464    0.9307    3.1580 H   0  0  0  0  0  0  0  0  0  0  0  0
    8.0122    1.9039   -1.0419 H   0  0  0  0  0  0  0  0  0  0  0  0
    1.3700    0.7864   -0.0586 H   0  0  0  0  0  0  0  0  0  0  0  0
   -5.0625    2.8591    1.9865 H   0  0  0  0  0  0  0  0  0  0  0  0
   -3.4988    3.5084    1.5028 H   0  0  0  0  0  0  0  0  0  0  0  0
   -0.5685    0.1508    0.2478 H   0  0  0  0  0  0  0  0  0  0  0  0
    5.8337   -1.6224    2.3801 H   0  0  0  0  0  0  0  0  0  0  0  0
    1.2532   -2.5370   -2.8283 H   0  0  0  0  0  0  0  0  0  0  0  0
   -7.3520   -0.8732   -0.6918 H   0  0  0  0  0  0  0  0  0  0  0  0
   -4.1745   -2.9736    1.3517 H   0  0  0  0  0  0  0  0  0  0  0  0
    7.8860   -1.4203    3.7909 H   0  0  0  0  0  0  0  0  0  0  0  0
    9.7121    0.1101    3.0409 H   0  0  0  0  0  0  0  0  0  0  0  0
   -8.8757   -2.7576   -0.2154 H   0  0  0  0  0  0  0  0  0  0  0  0
   -5.7005   -4.8313    1.8048 H   0  0  0  0  0  0  0  0  0  0  0  0
   -8.0558   -4.7391    1.0321 H   0  0  0  0  0  0  0  0  0  0  0  0
  1 35  1  0  0  0  0
  2 35  1  0  0  0  0
  3 35  1  0  0  0  0
  4 22  2  0  0  0  0
  5 23  2  0  0  0  0
  6 31  2  0  0  0  0
  7 16  1  0  0  0  0
  7 23  1  0  0  0  0
  7 28  1  0  0  0  0
  8 22  1  0  0  0  0
  8 25  1  0  0  0  0
  8 53  1  0  0  0  0
  9 18  1  0  0  0  0
  9 31  1  0  0  0  0
  9 57  1  0  0  0  0
 10 21  1  0  0  0  0
 10 32  2  0  0  0  0
 11 25  1  0  0  0  0
 11 37  2  0  0  0  0
 12 14  1  0  0  0  0
 12 15  1  0  0  0  0
 12 20  1  0  0  0  0
 12 22  1  0  0  0  0
 13 16  1  0  0  0  0
 13 17  1  0  0  0  0
 13 24  1  0  0  0  0
 13 41  1  0  0  0  0
 14 19  1  0  0  0  0
 14 42  1  0  0  0  0
 14 43  1  0  0  0  0
 15 21  1  0  0  0  0
 15 44  1  0  0  0  0
 15 45  1  0  0  0  0
 16 26  1  0  0  0  0
 16 46  1  0  0  0  0
 17 18  1  0  0  0  0
 17 47  1  0  0  0  0
 17 48  1  0  0  0  0
 18 23  1  0  0  0  0
 18 49  1  0  0  0  0
 19 21  2  0  0  0  0
 19 27  1  0  0  0  0
 20 25  2  0  0  0  0
 20 30  1  0  0  0  0
 24 33  2  0  0  0  0
 24 34  1  0  0  0  0
 26 50  1  0  0  0  0
 26 51  1  0  0  0  0
 26 52  1  0  0  0  0
 27 29  2  0  0  0  0
 27 54  1  0  0  0  0
 28 35  1  0  0  0  0
 28 55  1  0  0  0  0
 28 56  1  0  0  0  0
 29 31  1  0  0  0  0
 29 32  1  0  0  0  0
 30 36  2  0  0  0  0
 30 58  1  0  0  0  0
 32 59  1  0  0  0  0
 33 38  1  0  0  0  0
 33 60  1  0  0  0  0
 34 39  2  0  0  0  0
 34 61  1  0  0  0  0
 36 37  1  0  0  0  0
 36 62  1  0  0  0  0
 37 63  1  0  0  0  0
 38 40  2  0  0  0  0
 38 64  1  0  0  0  0
 39 40  1  0  0  0  0
 39 65  1  0  0  0  0
 40 66  1  0  0  0  0
M  END
> <PUBCHEM_COMPOUND_CID>
68748835

> <PUBCHEM_CONFORMER_RMSD>
1

> <PUBCHEM_CONFORMER_DIVERSEORDER>
1
32
30
40
49
38
22
64
45
16
44
19
6
52
25
61
31
27
60
14
63
59
42
65
53
15
41
13
20
29
47
43
26
35
23
58
54
17
37
34
12
8
11
56
28
3
10
36
18
55
51
50
4
2
48
7
57
24
46
39
62
33
5
21
9

> <PUBCHEM_MMFF94_PARTIAL_CHARGES>
50
1 -0.34
10 -0.62
11 -0.62
12 0.2
13 0.14
14 0.14
15 0.14
16 0.3
18 0.36
19 -0.14
2 -0.34
20 -0.14
21 0.17
22 0.57
23 0.57
24 -0.14
25 0.43
27 -0.15
28 0.3
29 0.09
3 -0.34
30 -0.15
31 0.54
32 0.16
33 -0.15
34 -0.15
35 1.02
36 -0.15
37 0.16
38 -0.15
39 -0.15
4 -0.57
40 -0.15
5 -0.57
53 0.37
54 0.15
57 0.37
58 0.15
59 0.15
6 -0.57
60 0.15
61 0.15
62 0.15
63 0.15
64 0.15
65 0.15
66 0.15
7 -0.66
8 -0.55
9 -0.73

> <PUBCHEM_EFFECTIVE_ROTOR_COUNT>
7.6

> <PUBCHEM_PHARMACOPHORE_FEATURES>
13
1 10 acceptor
1 11 acceptor
1 4 acceptor
1 5 acceptor
1 6 acceptor
1 8 donor
1 9 donor
5 12 14 15 19 21 rings
5 8 12 20 22 25 rings
6 10 19 21 27 29 32 rings
6 11 20 25 30 36 37 rings
6 24 33 34 38 39 40 rings
6 7 13 16 17 18 23 rings

> <PUBCHEM_HEAVY_ATOM_COUNT>
40

> <PUBCHEM_ATOM_DEF_STEREO_COUNT>
4

> <PUBCHEM_ATOM_UDEF_STEREO_COUNT>
0

> <PUBCHEM_BOND_DEF_STEREO_COUNT>
0

> <PUBCHEM_BOND_UDEF_STEREO_COUNT>
0

> <PUBCHEM_ISOTOPIC_ATOM_COUNT>
0

> <PUBCHEM_COMPONENT_COUNT>
1

> <PUBCHEM_CACTVS_TAUTO_COUNT>
56

> <PUBCHEM_CONFORMER_ID>
0419062300000001

> <PUBCHEM_MMFF94_ENERGY>
124.3015

> <PUBCHEM_FEATURE_SELFOVERLAP>
66.185

> <PUBCHEM_SHAPE_FINGERPRINT>
10 15 18060416937145246942
10290309 65 17774449286813879135
10369192 42 15482680095481572791
10930396 42 18272081743455819375
10952577 141 11815631791530415371
11411753 3 17987248745688723046
11607047 74 16241218543543807613
12373685 5 18187638055945303115
13383668 251 16916209122133210675
13540713 4 17987533510863681087
13560911 23 18260269650555546392
13560911 43 18341051925199590536
14068700 675 18041562563602618079
14068700 686 18270694086492894079
14118638 360 17988649579469212511
14294032 229 18131627911735245380
14659021 117 18336554884957692291
15328684 2 18186807980601406476
15336146 87 18339366365231767821
15347590 135 18201722872542962210
15519825 34 18260826042294555498
16664035 7 18342735256765675109
19303781 99 17839176656981233895
19611394 137 18341056327482942363
20505436 4 12103302477761234335
21033648 29 18269839722406480532
21130935 74 18336825295793284354
21647283 7 18411412917726449144
21772528 278 15123511440823987863
21814621 53 18201720592421573834
22149856 69 17988381302921493962
23522609 53 17605018973438249236
249057 25 17822302309171052332
2747138 104 18272101533947480559
3418910 222 18265066875691030965
3663271 9 18186801375104839648
397830 11 18343589512189788406
4073 2 18340493261913316815
4144715 1 18198077905707587119
4403749 210 18131066018164579799
504579 68 10665221532789396010
5080951 261 17967810514951511589
5104073 3 18129668495477521914
5109719 28 17417809604243253914
6697151 62 13912598407471669182
6698420 124 17769390327294945393
6712543 237 17969218950001137290
9689198 14 14620525552799385526

> <PUBCHEM_SHAPE_MULTIPOLES>
758.85
28.35
4.32
2.23
27.48
3.81
0.33
-6.75
15.9
-15.61
0.6
4.03
-0.83
0.64

> <PUBCHEM_SHAPE_SELFOVERLAP>
1684.507

> <PUBCHEM_SHAPE_VOLUME>
407.6

> <PUBCHEM_COORDINATE_TYPE>
2
5
10

$$$$
